
     RDKit          3D

 27 29  0  0  0  0  0  0  0  0999 V2000
   17.5600    5.5290   17.1770 P   0  0  0  0  0  0  0  0  0  0  0  0
   16.2860    6.0820   17.8010 O   0  0  0  0  0  0  0  0  0  0  0  0
   17.3410    4.1790   16.5340 O   0  0  0  0  0  0  0  0  0  0  0  0
   18.3200    6.5030   16.3330 O   0  0  0  0  0  0  0  0  0  0  0  0
   19.6990    6.1950   18.9430 P   0  0  0  0  0  0  0  0  0  0  0  0
   20.7860    6.1140   17.9090 O   0  0  0  0  0  0  0  0  0  0  0  0
   19.1530    7.5450   19.3150 O   0  0  0  0  0  0  0  0  0  0  0  0
   18.4810    5.2610   18.4660 O   0  0  0  0  0  0  0  0  0  0  0  0
   20.1510    5.4030   20.2630 O   0  0  0  0  0  0  0  0  0  0  0  0
   19.2520    5.1050   21.3330 C   0  0  0  0  0  0  0  0  0  0  0  0
   20.0460    5.0860   22.6350 C   0  0  1  0  0  0  0  0  0  0  0  0
   20.6760    3.8200   22.8190 O   0  0  0  0  0  0  0  0  0  0  0  0
   21.1450    6.1410   22.6240 C   0  0  1  0  0  0  0  0  0  0  0  0
   21.1980    6.6770   23.9440 O   0  0  0  0  0  0  0  0  0  0  0  0
   22.4080    5.3820   22.2900 C   0  0  1  0  0  0  0  0  0  0  0  0
   23.5780    5.8950   22.9330 O   0  0  0  0  0  0  0  0  0  0  0  0
   22.1010    3.9790   22.7710 C   0  0  2  0  0  0  0  0  0  0  0  0
   22.7010    3.0200   21.8220 N   0  0  0  0  0  0  0  0  0  0  0  0
   22.1830    2.6380   20.6410 C   0  0  0  0  0  0  0  0  0  0  0  0
   23.0020    1.7480   20.0400 N   0  0  0  0  0  0  0  0  0  0  0  0
   24.0660    1.5640   20.8480 C   0  0  0  0  0  0  0  0  0  0  0  0
   25.3010    0.7500   20.8210 C   0  0  0  0  0  0  0  0  0  0  0  0
   25.5400   -0.0540   19.7620 N   0  0  0  0  0  0  0  0  0  0  0  0
   26.1600    0.8430   21.8690 N   0  0  0  0  0  0  0  0  0  0  0  0
   25.9210    1.6480   22.9340 C   0  0  0  0  0  0  0  0  0  0  0  0
   24.8060    2.4110   23.0220 N   0  0  0  0  0  0  0  0  0  0  0  0
   23.8680    2.4080   22.0280 C   0  0  0  0  0  0  0  0  0  0  0  0
  2  1  1  0
  3  1  1  0
  4  1  1  0
  6  5  1  0
  7  5  1  0
  8  5  1  0
  8  1  1  0
  9  5  1  0
 10  9  1  0
 11 10  1  6
 12 11  1  0
 13 11  1  0
 13 14  1  1
 15 13  1  0
 15 16  1  1
 17 12  1  0
 17 15  1  0
 17 18  1  6
 19 18  1  0
 20 19  1  0
 21 20  1  0
 22 21  1  0
 23 22  1  0
 24 22  1  0
 25 24  1  0
 26 25  1  0
 27 21  1  0
 27 26  1  0
 27 18  1  0
M  END
$$$$
