BDB23802
  SciTegic07051219573D

 45 47  0  0  0  0            999 V2000
    1.2084   -0.6974   -0.0001 C   0  0
   -1.1987   -0.6980   -0.0003 C   0  0
   -1.1983    0.6923   -0.0001 C   0  0
    0.0048    1.3871    0.0001 C   0  0
    1.2089    0.6915    0.0001 C   0  0
    0.0043   -1.3930   -0.0003 C   0  0
    3.7191   -0.5716   -0.4273 C   0  0
    3.7534    0.0233   -1.6851 C   0  0
    4.8818    0.7232   -2.0937 C   0  0
    5.9786    0.8294   -1.2459 C   0  0
    5.9467    0.2359    0.0098 C   0  0
    4.8173   -0.4647    0.4187 C   0  0
    2.3729   -2.8911   -1.1248 S   0  0
    1.9031   -3.6069   -3.7375 C   0  0
    1.9155   -2.3840   -2.8080 C   0  0
    2.5246   -1.4574   -0.0035 C   0  0
    2.7638   -2.0010    1.3936 C   0  0
    3.0136   -3.0778    3.9441 C   0  0
    2.6329   -1.7513    3.7847 C   0  0
    2.5077   -1.2128    2.5087 C   0  0
    3.1444   -3.3291    1.5537 C   0  0
    3.2694   -3.8671    2.8285 C   0  0
    1.5498   -3.1770   -5.0982 N   0  3
   -2.1515   -1.2478   -0.0004 H   0  0
   -2.1508    1.2424   -0.0001 H   0  0
    0.0048    2.4871    0.0003 H   0  0
    2.1617    1.2413    0.0003 H   0  0
    0.0042   -2.4930   -0.0005 H   0  0
    2.8860   -0.0608   -2.3565 H   0  0
    4.9074    1.1934   -3.0878 H   0  0
    6.8720    1.3836   -1.5695 H   0  0
    6.8146    0.3201    0.6803 H   0  0
    4.7926   -0.9349    1.4129 H   0  0
    2.9001   -4.0714   -3.7468 H   0  0
    1.1605   -4.3347   -3.3786 H   0  0
    0.9152   -1.9266   -2.7935 H   0  0
    2.6448   -1.6499   -3.1812 H   0  0
    3.1126   -3.5038    4.9534 H   0  0
    2.4305   -1.1271    4.6675 H   0  0
    2.2059   -0.1626    2.3823 H   0  0
    3.3464   -3.9536    0.6710 H   0  0
    3.5708   -4.9173    2.9551 H   0  0
    2.2443   -2.4962   -5.4374 H   0  0
    0.6163   -2.7418   -5.0924 H   0  0
    1.5407   -3.9952   -5.7238 H   0  0
 13 16  1  0
 16  7  1  0
 16  1  1  0
  5  1  2  0
  1  6  1  0
  2  3  1  0
  2  6  2  0
  3  4  2  0
  4  5  1  0
 12  7  2  0
  8  7  1  0
  8  9  2  0
  9 10  1  0
 10 11  2  0
 11 12  1  0
 13 15  1  0
 15 14  1  0
 14 23  1  0
 16 17  1  0
 20 17  2  0
 17 21  1  0
 18 19  2  0
 18 22  1  0
 19 20  1  0
 21 22  2  0
  2 24  1  0
  3 25  1  0
  4 26  1  0
  5 27  1  0
  6 28  1  0
  8 29  1  0
  9 30  1  0
 10 31  1  0
 11 32  1  0
 12 33  1  0
 14 34  1  0
 14 35  1  0
 15 36  1  0
 15 37  1  0
 18 38  1  0
 19 39  1  0
 20 40  1  0
 21 41  1  0
 22 42  1  0
 23 43  1  0
 23 44  1  0
 23 45  1  0
M  CHG  1  23   1
M  END
> <Name>
BDB23802

> <Target>
Kinesin Spindle Protein Eg5

> <Ki_in_nM>
 150

> <Kd_from_ITC>
false

> <Uniprot_ID>
P52732

> <source_organism>
Homo sapiens (human)

> <SourceTag>
KIF11
$$$$
