BDB23780
  SciTegic07051219573D

 53 56  0  0  0  0            999 V2000
    3.6451    0.4509    2.0395 C   0  0
    3.8756   -0.2818    0.3853 S   0  0
    4.7639    1.4573    2.3326 C   0  0  1  0  0  0
    4.5512    2.0323    3.7009 C   0  0
    5.4166    2.7511    4.2125 O   0  0
    3.4080    1.7547    4.3808 O   0  5
    6.0670    0.7806    2.2794 N   0  3
    2.5448   -1.4736    0.0065 C   0  0
    2.8103   -2.0333   -1.3892 C   0  0
    2.6021   -1.8388   -3.7806 C   0  0
    2.2759   -1.3969   -2.5031 C   0  0
    3.6729   -3.1124   -1.5536 C   0  0
    3.9988   -3.5539   -2.8299 C   0  0
    3.4631   -2.9168   -3.9436 C   0  0
    2.6214   -2.6251    1.0529 C   0  0
    1.6458   -3.6159    1.1187 C   0  0
    1.8212   -4.7123    1.9537 C   0  0
    2.9729   -4.8215    2.7248 C   0  0
    3.9486   -3.8347    2.6606 C   0  0
    3.7732   -2.7372    1.8248 C   0  0
    1.2050   -0.6976   -0.0002 C   0  0
    0.0016   -1.3924   -0.0004 C   0  0
    0.0030    1.3878    0.0002 C   0  0
    1.2059    0.6921    0.0001 C   0  0
   -1.2012   -0.6967   -0.0003 C   0  0
   -2.4046   -1.3913   -0.0005 C   0  0
   -3.6076   -0.6955   -0.0004 C   0  0
   -3.6068    0.6943    0.0000 C   0  0
   -2.4032    1.3888    0.0002 C   0  0
   -1.2003    0.6930    0.0000 C   0  0
    2.6735    0.9650    2.0796 H   0  0
    3.6636   -0.3448    2.7988 H   0  0
    4.7471    2.2610    1.5818 H   0  0
    6.2053    0.3777    1.3417 H   0  0
    6.0904    0.0276    2.9817 H   0  0
    6.8173    1.4582    2.4766 H   0  0
    2.1784   -1.3350   -4.6619 H   0  0
    1.5944   -0.5431   -2.3741 H   0  0
    4.0972   -3.6163   -0.6726 H   0  0
    4.6805   -4.4074   -2.9594 H   0  0
    3.7212   -3.2664   -4.9541 H   0  0
    0.7346   -3.5306    0.5085 H   0  0
    1.0488   -5.4939    2.0047 H   0  0
    3.1117   -5.6897    3.3859 H   0  0
    4.8598   -3.9213    3.2708 H   0  0
    4.5464   -1.9565    1.7740 H   0  0
    0.0012   -2.4924   -0.0006 H   0  0
    0.0034    2.4878    0.0005 H   0  0
    2.1589    1.2415    0.0002 H   0  0
   -2.4051   -2.4913   -0.0007 H   0  0
   -4.5605   -1.2449   -0.0005 H   0  0
   -4.5592    1.2447    0.0001 H   0  0
   -2.4026    2.4888    0.0004 H   0  0
  2  1  1  0
  1  3  1  0
  2  8  1  0
  3  4  1  0
  4  6  1  0
  4  5  2  0
  3  7  1  0
  8 21  1  0
  8 15  1  0
  8  9  1  0
 11  9  2  0
  9 12  1  0
 10 11  1  0
 10 14  2  0
 12 13  2  0
 13 14  1  0
 20 15  2  0
 16 15  1  0
 16 17  2  0
 17 18  1  0
 18 19  2  0
 19 20  1  0
 24 21  2  0
 21 22  1  0
 25 22  2  0
 30 23  2  0
 24 23  1  0
 26 25  1  0
 26 27  2  0
 27 28  1  0
 28 29  2  0
 29 30  1  0
 30 25  1  0
  1 31  1  0
  1 32  1  0
  3 33  1  0
  7 34  1  0
  7 35  1  0
  7 36  1  0
 10 37  1  0
 11 38  1  0
 12 39  1  0
 13 40  1  0
 14 41  1  0
 16 42  1  0
 17 43  1  0
 18 44  1  0
 19 45  1  0
 20 46  1  0
 22 47  1  0
 23 48  1  0
 24 49  1  0
 26 50  1  0
 27 51  1  0
 28 52  1  0
 29 53  1  0
M  CHG  2   6  -1   7   1
M  END
> <Name>
BDB23780

> <Target>
Kinesin Spindle Protein Eg5

> <Ki_in_nM>
 200

> <Kd_from_ITC>
false

> <Uniprot_ID>
P52732

> <source_organism>
Homo sapiens (human)

> <SourceTag>
KIF11
$$$$
