BDB23777
  SciTegic07051219573D

 46 47  0  0  0  0            999 V2000
    2.7419   -0.7710   -2.8956 C   0  0
    3.5699   -0.7008   -1.2809 S   0  0
    3.6520   -0.1476   -3.9630 C   0  0  1  0  0  0
    2.9923   -0.2525   -5.3044 C   0  0
    3.4643    0.3503   -6.2748 O   0  0
    1.8820   -1.0202   -5.4547 O   0  5
    3.9023    1.2643   -3.6407 N   0  3
    2.5374   -1.4685    0.0023 C   0  0
    1.2084   -0.6974   -0.0001 C   0  0
    0.0048    1.3871    0.0001 C   0  0
    1.2089    0.6915    0.0001 C   0  0
    0.0043   -1.3930   -0.0003 C   0  0
   -1.1987   -0.6980   -0.0003 C   0  0
   -1.1983    0.6923   -0.0001 C   0  0
    2.4290   -3.0046   -0.3235 C   0  0
    1.6245   -3.8703    0.4127 C   0  0
    1.6630   -5.2371    0.1668 C   0  0
    2.5066   -5.7431   -0.8158 C   0  0
    3.3112   -4.8824   -1.5518 C   0  0
    3.2727   -3.5143   -1.3058 C   0  0
    4.6760   -1.8383    1.3746 C   0  0
    3.2721   -1.2027    1.3689 C   0  0
    2.4724   -1.6646    2.6112 C   0  0
    1.7961   -0.2113   -2.8487 H   0  0
    2.5358   -1.8194   -3.1569 H   0  0
    4.6110   -0.6860   -3.9846 H   0  0
    4.3593    1.3289   -2.7199 H   0  0
    3.0069    1.7727   -3.6139 H   0  0
    4.5130    1.6805   -4.3580 H   0  0
    0.0048    2.4871    0.0003 H   0  0
    2.1617    1.2413    0.0003 H   0  0
    0.0042   -2.4930   -0.0005 H   0  0
   -2.1515   -1.2478   -0.0004 H   0  0
   -2.1508    1.2424   -0.0001 H   0  0
    0.9570   -3.4712    1.1906 H   0  0
    1.0260   -5.9189    0.7494 H   0  0
    2.5370   -6.8253   -1.0104 H   0  0
    3.9785   -5.2830   -2.3291 H   0  0
    3.9105   -2.8336   -1.8887 H   0  0
    5.2640   -1.4074    0.5509 H   0  0
    4.5755   -2.9222    1.2157 H   0  0
    5.1770   -1.6448    2.3345 H   0  0
    3.3620   -0.1090    1.4458 H   0  0
    2.2780   -2.7413    2.4979 H   0  0
    1.5081   -1.1355    2.5994 H   0  0
    3.0204   -1.4607    3.5429 H   0  0
  2  1  1  0
  1  3  1  0
  2  8  1  0
  3  4  1  0
  4  6  1  0
  4  5  2  0
  3  7  1  0
  8 22  1  0
  8 15  1  0
  8  9  1  0
 11  9  2  0
  9 12  1  0
 10 11  1  0
 10 14  2  0
 12 13  2  0
 13 14  1  0
 20 15  2  0
 16 15  1  0
 16 17  2  0
 17 18  1  0
 18 19  2  0
 19 20  1  0
 22 21  1  0
 22 23  1  0
  1 24  1  0
  1 25  1  0
  3 26  1  0
  7 27  1  0
  7 28  1  0
  7 29  1  0
 10 30  1  0
 11 31  1  0
 12 32  1  0
 13 33  1  0
 14 34  1  0
 16 35  1  0
 17 36  1  0
 18 37  1  0
 19 38  1  0
 20 39  1  0
 21 40  1  0
 21 41  1  0
 21 42  1  0
 22 43  1  0
 23 44  1  0
 23 45  1  0
 23 46  1  0
M  CHG  2   6  -1   7   1
M  END
> <Name>
BDB23777

> <Target>
Kinesin Spindle Protein Eg5

> <Ki_in_nM>
 150

> <Kd_from_ITC>
false

> <Uniprot_ID>
P52732

> <source_organism>
Homo sapiens (human)

> <SourceTag>
KIF11
$$$$
