BDB23836
  SciTegic07051219573D

 51 55  0  0  0  0            999 V2000
    1.0685   -0.6917   -0.1809 C   0  0
   -1.3472   -0.8665   -0.0906 C   0  0
   -1.4210    0.5041   -0.3229 C   0  0
   -0.2646    1.2474   -0.5665 C   0  0
    0.9947    0.6541   -0.5161 C   0  0
   -0.0844   -1.4316   -0.0278 C   0  0
    3.1722   -1.3939    1.3345 C   0  0
    4.0461   -2.4220    1.6599 C   0  0
    4.8109   -2.4010    2.8175 C   0  0
    4.7112   -1.3223    3.6829 C   0  0
    4.7149   -2.6623   -1.5168 C   0  0
    2.3456   -1.5640   -0.0184 C   0  0
    1.6202   -2.9371    0.0319 C   0  0
   -0.0398   -5.1502    0.1145 C   0  0
   -0.6119   -3.8810    0.1150 C   0  0
    0.2479   -2.7961    0.0698 C   0  0
    2.1939   -4.2006    0.0367 C   0  0
    1.3469   -5.3065    0.0733 C   0  0
    5.6320   -2.4389   -2.7317 C   0  0  1  0  0  0
    6.7053   -3.4858   -2.7557 C   0  0
    7.4420   -3.5916   -3.7425 O   0  0
    3.4089   -1.4028   -1.4883 S   0  0
    6.8614   -4.3232   -1.6980 O   0  5
    4.8633   -2.5122   -3.9808 N   0  3
    3.0767   -0.3004    2.2222 C   0  0
    3.8516   -0.2825    3.3829 C   0  0
    2.1454    1.8467    2.8691 C   0  0
    2.2344    0.7708    1.9929 C   0  0
    3.7704    0.7914    4.2691 C   0  0
    2.9212    1.8567    4.0167 C   0  0
   -2.2296   -1.4588    0.0341 H   0  0
   -2.3730    0.9925   -0.3145 H   0  0
   -0.3470    2.2893   -0.7957 H   0  0
    1.8786    1.2182   -0.7292 H   0  0
    4.1328   -3.2574    0.9969 H   0  0
    5.4729   -3.2115    3.0407 H   0  0
    5.2966   -1.2950    4.5782 H   0  0
    5.2952   -2.5966   -0.6152 H   0  0
    4.2720   -3.6358   -1.5802 H   0  0
   -0.6694   -6.0148    0.1460 H   0  0
   -1.6732   -3.7489    0.1491 H   0  0
    3.2567   -4.3223    0.0131 H   0  0
    1.7660   -6.2910    0.0699 H   0  0
    6.0963   -1.4456   -2.6645 H   0  0
    4.1318   -1.7897   -3.9803 H   0  0
    4.4286   -3.4414   -4.0613 H   0  0
    5.4948   -2.3583   -4.7790 H   0  0
    1.4831    2.6603    2.6586 H   0  0
    1.6295    0.7722    1.1103 H   0  0
    4.3711    0.7926    5.1545 H   0  0
    2.8652    2.6778    4.7005 H   0  0
 22 12  1  0
 12  7  1  0
 12  1  1  0
  5  1  2  0
  1  6  1  0
  2  3  1  0
  2  6  2  0
  3  4  2  0
  4  5  1  0
 25  7  2  0
  8  7  1  0
  8  9  2  0
  9 10  1  0
 10 26  2  0
 22 11  1  0
 11 19  1  0
 12 13  1  0
 16 13  2  0
 13 17  1  0
 14 15  2  0
 14 18  1  0
 15 16  1  0
 17 18  2  0
 19 20  1  0
 20 23  1  0
 20 21  2  0
 19 24  1  0
  6 16  1  0
 28 25  1  0
 25 26  1  0
 26 29  1  0
 27 28  2  0
 27 30  1  0
 29 30  2  0
  2 31  1  0
  3 32  1  0
  4 33  1  0
  5 34  1  0
  8 35  1  0
  9 36  1  0
 10 37  1  0
 11 38  1  0
 11 39  1  0
 14 40  1  0
 15 41  1  0
 17 42  1  0
 18 43  1  0
 19 44  1  0
 24 45  1  0
 24 46  1  0
 24 47  1  0
 27 48  1  0
 28 49  1  0
 29 50  1  0
 30 51  1  0
M  CHG  2  23  -1  24   1
M  END
> <Name>
BDB23836

> <Target>
Kinesin Spindle Protein Eg5

> <Ki_in_nM>
 900

> <Kd_from_ITC>
false

> <Uniprot_ID>
P52732

> <source_organism>
Homo sapiens (human)

> <SourceTag>
KIF11
$$$$
