BDB23823
  SciTegic07051219573D

 51 53  0  0  0  0            999 V2000
    3.4108   -0.8274    1.0546 C   0  0
    3.8868   -0.4289    3.3814 C   0  0
    4.9493    0.3931    3.0228 C   0  0
    5.2424    0.6049    1.6815 C   0  0
    4.4728   -0.0054    0.6972 C   0  0
    3.1179   -1.0386    2.3981 C   0  0
    3.1173   -1.4098   -1.4257 C   0  0
    4.3272   -2.0431   -1.6953 C   0  0
    4.7998   -2.1154   -2.9997 C   0  0
    4.0637   -1.5553   -4.0378 C   0  0
    2.8556   -0.9233   -3.7711 C   0  0
    2.3825   -0.8509   -2.4655 C   0  0
    3.6796   -4.1101    0.6852 C   0  0
    2.5015   -1.4451   -0.0044 C   0  0
    1.1920   -0.6884   -0.0001 C   0  0
   -1.2141    0.7012   -0.0001 C   0  0
   -0.0106    1.3965    0.0001 C   0  0
    1.1928    0.7015    0.0001 C   0  0
   -0.0114   -1.3835   -0.0003 C   0  0
   -1.2147   -0.6886   -0.0003 C   0  0
    3.3700   -5.5889    0.9360 C   0  0  1  0  0  0
    4.6558   -6.3497    1.0523 C   0  0
    4.6706   -7.4663    1.5815 O   0  0
    2.1442   -3.1672    0.4792 S   0  0
    2.5664   -5.7592    2.1545 N   0  3
    5.8066   -5.8074    0.5741 O   0  5
   -2.4259    1.4007   -0.0001 O   0  0
   -2.2002    2.8170    0.0002 C   0  0
    3.6550   -0.5963    4.4436 H   0  0
    5.5581    0.8758    3.8015 H   0  0
    6.0831    1.2553    1.3981 H   0  0
    4.7047    0.1626   -0.3649 H   0  0
    2.2771   -1.6887    2.6818 H   0  0
    4.9098   -2.4869   -0.8746 H   0  0
    5.7563   -2.6157   -3.2113 H   0  0
    4.4380   -1.6126   -5.0705 H   0  0
    2.2735   -0.4802   -4.5925 H   0  0
    1.4256   -0.3508   -2.2550 H   0  0
    4.2447   -3.7079    1.5390 H   0  0
    4.2907   -4.0164   -0.2246 H   0  0
   -0.0107    2.4965    0.0003 H   0  0
    2.1457    1.2512    0.0003 H   0  0
   -0.0113   -2.4835   -0.0004 H   0  0
   -2.1675   -1.2383   -0.0004 H   0  0
    2.7852   -5.9783    0.0897 H   0  0
    1.6855   -5.2363    2.0477 H   0  0
    3.0903   -5.3766    2.9545 H   0  0
    2.3653   -6.7571    2.3117 H   0  0
   -1.6217    3.0857   -0.8960 H   0  0
   -1.6218    3.0854    0.8965 H   0  0
   -3.1603    3.3538    0.0002 H   0  0
 24 14  1  0
 14  7  1  0
 14  1  1  0
  5  1  2  0
  1  6  1  0
  2  3  1  0
  2  6  2  0
  3  4  2  0
  4  5  1  0
 12  7  2  0
  8  7  1  0
  8  9  2  0
  9 10  1  0
 10 11  2  0
 11 12  1  0
 24 13  1  0
 13 21  1  0
 14 15  1  0
 18 15  2  0
 15 19  1  0
 16 17  2  0
 16 20  1  0
 17 18  1  0
 19 20  2  0
 21 22  1  0
 22 26  1  0
 22 23  2  0
 21 25  1  0
 16 27  1  0
 27 28  1  0
  2 29  1  0
  3 30  1  0
  4 31  1  0
  5 32  1  0
  6 33  1  0
  8 34  1  0
  9 35  1  0
 10 36  1  0
 11 37  1  0
 12 38  1  0
 13 39  1  0
 13 40  1  0
 17 41  1  0
 18 42  1  0
 19 43  1  0
 20 44  1  0
 21 45  1  0
 25 46  1  0
 25 47  1  0
 25 48  1  0
 28 49  1  0
 28 50  1  0
 28 51  1  0
M  CHG  2  25   1  26  -1
M  END
> <Name>
BDB23823

> <Target>
Kinesin Spindle Protein Eg5

> <Ki_in_nM>
 200

> <Kd_from_ITC>
false

> <Uniprot_ID>
P52732

> <source_organism>
Homo sapiens (human)

> <SourceTag>
KIF11
$$$$
