BDB23815
  SciTegic07051219573D

 54 56  0  0  0  0            999 V2000
    1.2084   -0.6974   -0.0001 C   0  0
   -1.1987   -0.6980   -0.0003 C   0  0
   -1.1983    0.6923   -0.0001 C   0  0
    0.0048    1.3871    0.0001 C   0  0
    1.2089    0.6915    0.0001 C   0  0
    0.0043   -1.3930   -0.0003 C   0  0
    3.7356   -0.5662    0.3811 C   0  0
    3.7879    0.0826    1.6116 C   0  0
    4.9325    0.7757    1.9852 C   0  0
    6.0277    0.8214    1.1298 C   0  0
    5.9779    0.1742   -0.0984 C   0  0
    4.8323   -0.5196   -0.4724 C   0  0
    1.9550   -2.2599    2.8324 C   0  0
    2.5252   -1.4577    0.0031 C   0  0
    2.7376   -2.0413   -1.3811 C   0  0
    2.9409   -3.1822   -3.9077 C   0  0
    2.5960   -1.8429   -3.7764 C   0  0
    2.4940   -1.2723   -2.5124 C   0  0
    3.0824   -3.3822   -1.5131 C   0  0
    3.1842   -3.9522   -2.7759 C   0  0
    2.0058   -3.4082    3.8455 C   0  0  1  0  0  0
    1.7300   -2.8646    5.2140 C   0  0
    1.7822   -1.6455    5.4105 O   0  0
    2.3814   -2.8521    1.1723 S   0  0
    1.0362   -4.4588    3.5041 N   0  3
    1.2525   -3.1810    7.5844 C   0  0
    1.4551   -3.7243    6.2732 N   0  0
    1.2420   -4.2897    8.5924 C   0  0
    1.0908   -4.0323    9.7920 O   0  0
    1.4020   -5.5756    8.1877 O   0  5
   -2.1515   -1.2478   -0.0004 H   0  0
   -2.1508    1.2424   -0.0001 H   0  0
    0.0048    2.4871    0.0003 H   0  0
    2.1617    1.2413    0.0003 H   0  0
    0.0042   -2.4930   -0.0005 H   0  0
    2.9220    0.0464    2.2890 H   0  0
    4.9723    1.2884    2.9576 H   0  0
    6.9339    1.3703    1.4257 H   0  0
    6.8445    0.2105   -0.7750 H   0  0
    4.7936   -1.0324   -1.4448 H   0  0
    0.9413   -1.8330    2.8194 H   0  0
    2.6670   -1.4779    3.1350 H   0  0
    3.0215   -3.6337   -4.9076 H   0  0
    2.4035   -1.2340   -4.6720 H   0  0
    2.2205   -0.2120   -2.4081 H   0  0
    3.2745   -3.9914   -0.6175 H   0  0
    3.4573   -5.0127   -2.8803 H   0  0
    3.0075   -3.8622    3.8227 H   0  0
    1.2546   -4.8189    2.5641 H   0  0
    0.0916   -4.0483    3.4958 H   0  0
    1.0811   -5.2234    4.1927 H   0  0
    2.0667   -2.4799    7.8203 H   0  0
    0.2906   -2.6483    7.6168 H   0  0
    1.3976   -4.7407    6.1168 H   0  0
 24 14  1  0
 14  7  1  0
 14  1  1  0
  5  1  2  0
  1  6  1  0
  2  3  1  0
  2  6  2  0
  3  4  2  0
  4  5  1  0
 12  7  2  0
  8  7  1  0
  8  9  2  0
  9 10  1  0
 10 11  2  0
 11 12  1  0
 24 13  1  0
 13 21  1  0
 14 15  1  0
 18 15  2  0
 15 19  1  0
 16 17  2  0
 16 20  1  0
 17 18  1  0
 19 20  2  0
 21 22  1  0
 22 27  1  0
 22 23  2  0
 21 25  1  0
 27 26  1  0
 26 28  1  0
 28 30  1  0
 28 29  2  0
  2 31  1  0
  3 32  1  0
  4 33  1  0
  5 34  1  0
  6 35  1  0
  8 36  1  0
  9 37  1  0
 10 38  1  0
 11 39  1  0
 12 40  1  0
 13 41  1  0
 13 42  1  0
 16 43  1  0
 17 44  1  0
 18 45  1  0
 19 46  1  0
 20 47  1  0
 21 48  1  0
 25 49  1  0
 25 50  1  0
 25 51  1  0
 26 52  1  0
 26 53  1  0
 27 54  1  0
M  CHG  2  25   1  30  -1
M  END
> <Name>
BDB23815

> <Target>
Kinesin Spindle Protein Eg5

> <Ki_in_nM>
 1500

> <Kd_from_ITC>
false

> <Uniprot_ID>
P52732

> <source_organism>
Homo sapiens (human)

> <SourceTag>
KIF11
$$$$
