BDB23775
  SciTegic07051219573D

 43 44  0  0  0  0            999 V2000
    2.9628   -0.3925   -2.7783 C   0  0
    3.6716   -0.5806   -1.1145 S   0  0
    3.9619    0.3415   -3.6840 C   0  0  1  0  0  0
    3.3869    0.4607   -5.0632 C   0  0
    3.9122    1.2148   -5.8897 O   0  0
    2.2911   -0.2656   -5.4049 O   0  5
    4.2340    1.6806   -3.1427 N   0  3
    2.5263   -1.4606   -0.0012 C   0  0
    1.2084   -0.6974   -0.0001 C   0  0
    0.0048    1.3871    0.0001 C   0  0
    1.2089    0.6915    0.0001 C   0  0
    0.0043   -1.3930   -0.0003 C   0  0
   -1.1987   -0.6980   -0.0003 C   0  0
   -1.1983    0.6923   -0.0001 C   0  0
    2.3691   -2.9382   -0.4268 C   0  0
    1.8530   -3.8709    0.4685 C   0  0
    1.8691   -5.2233    0.1512 C   0  0
    2.4020   -5.6464   -1.0613 C   0  0
    2.9184   -4.7172   -1.9557 C   0  0
    2.9022   -3.3635   -1.6381 C   0  0
    3.1166   -1.4017    1.4272 C   0  0
    4.5468   -1.9877    1.4437 C   0  0
    2.0303    0.1877   -2.7172 H   0  0
    2.7484   -1.3857   -3.1999 H   0  0
    4.9030   -0.2264   -3.7262 H   0  0
    4.6299    1.5925   -2.1959 H   0  0
    3.3552    2.2157   -3.0969 H   0  0
    4.9044    2.1710   -3.7518 H   0  0
    0.0048    2.4871    0.0003 H   0  0
    2.1617    1.2413    0.0003 H   0  0
    0.0042   -2.4930   -0.0005 H   0  0
   -2.1515   -1.2478   -0.0004 H   0  0
   -2.1508    1.2424   -0.0001 H   0  0
    1.4319   -3.5367    1.4282 H   0  0
    1.4604   -5.9594    0.8591 H   0  0
    2.4148   -6.7173   -1.3125 H   0  0
    3.3399   -5.0522   -2.9149 H   0  0
    3.3118   -2.6283   -2.3463 H   0  0
    3.1482   -0.3555    1.7657 H   0  0
    2.4784   -1.9810    2.1106 H   0  0
    5.1823   -1.4060    0.7597 H   0  0
    4.5115   -3.0334    1.1040 H   0  0
    4.9589   -1.9420    2.4626 H   0  0
  2  1  1  0
  1  3  1  0
  2  8  1  0
  3  4  1  0
  4  6  1  0
  4  5  2  0
  3  7  1  0
  8 21  1  0
  8 15  1  0
  8  9  1  0
 11  9  2  0
  9 12  1  0
 10 11  1  0
 10 14  2  0
 12 13  2  0
 13 14  1  0
 20 15  2  0
 16 15  1  0
 16 17  2  0
 17 18  1  0
 18 19  2  0
 19 20  1  0
 21 22  1  0
  1 23  1  0
  1 24  1  0
  3 25  1  0
  7 26  1  0
  7 27  1  0
  7 28  1  0
 10 29  1  0
 11 30  1  0
 12 31  1  0
 13 32  1  0
 14 33  1  0
 16 34  1  0
 17 35  1  0
 18 36  1  0
 19 37  1  0
 20 38  1  0
 21 39  1  0
 21 40  1  0
 22 41  1  0
 22 42  1  0
 22 43  1  0
M  CHG  2   6  -1   7   1
M  END
> <Name>
BDB23775

> <Target>
Kinesin Spindle Protein Eg5

> <Ki_in_nM>
 450

> <Kd_from_ITC>
false

> <Uniprot_ID>
P52732

> <source_organism>
Homo sapiens (human)

> <SourceTag>
KIF11
$$$$
