BDB23819
  SciTegic07051219573D

 47 49  0  0  0  0            999 V2000
    3.4055   -0.8246    1.0546 C   0  0
    3.8816   -0.4262    3.3814 C   0  0
    4.9442    0.3957    3.0229 C   0  0
    5.2373    0.6074    1.6815 C   0  0
    4.4676   -0.0028    0.6972 C   0  0
    3.1125   -1.0358    2.3981 C   0  0
    3.1119   -1.4069   -1.4257 C   0  0
    4.3217   -2.0405   -1.6953 C   0  0
    4.7943   -2.1128   -2.9997 C   0  0
    4.0583   -1.5526   -4.0378 C   0  0
    2.8503   -0.9204   -3.7711 C   0  0
    2.3772   -0.8480   -2.4655 C   0  0
    3.6739   -4.1074    0.6852 C   0  0
    2.4961   -1.4422   -0.0044 C   0  0
    1.1868   -0.6853   -0.0001 C   0  0
   -1.2191    0.7042   -0.0001 C   0  0
   -0.0157    1.3996    0.0001 C   0  0
    1.1877    0.7046    0.0001 C   0  0
   -0.0166   -1.3806   -0.0003 C   0  0
   -1.2199   -0.6856   -0.0003 C   0  0
    3.3641   -5.5861    0.9360 C   0  0  1  0  0  0
    4.6498   -6.3471    1.0523 C   0  0
    4.6644   -7.4637    1.5815 O   0  0
    2.1385   -3.1642    0.4792 S   0  0
    2.5605   -5.7563    2.1544 N   0  3
    5.8006   -5.8050    0.5741 O   0  5
   -2.3788    1.3729   -0.0001 F   0  0
    3.6498   -0.5936    4.4436 H   0  0
    5.5530    0.8783    3.8016 H   0  0
    6.0781    1.2577    1.3981 H   0  0
    4.6996    0.1652   -0.3648 H   0  0
    2.2717   -1.6857    2.6818 H   0  0
    4.9043   -2.4844   -0.8746 H   0  0
    5.7508   -2.6133   -3.2113 H   0  0
    4.4326   -1.6099   -5.0705 H   0  0
    2.2682   -0.4772   -4.5925 H   0  0
    1.4204   -0.3478   -2.2550 H   0  0
    4.2390   -3.7052    1.5390 H   0  0
    4.2850   -4.0138   -0.2246 H   0  0
   -0.0159    2.4996    0.0003 H   0  0
    2.1406    1.2542    0.0003 H   0  0
   -0.0165   -2.4806   -0.0004 H   0  0
   -2.1727   -1.2353   -0.0004 H   0  0
    2.7792   -5.9755    0.0896 H   0  0
    1.6796   -5.2333    2.0477 H   0  0
    3.0843   -5.3738    2.9545 H   0  0
    2.3592   -6.7542    2.3116 H   0  0
 24 14  1  0
 14  7  1  0
 14  1  1  0
  5  1  2  0
  1  6  1  0
  2  3  1  0
  2  6  2  0
  3  4  2  0
  4  5  1  0
 12  7  2  0
  8  7  1  0
  8  9  2  0
  9 10  1  0
 10 11  2  0
 11 12  1  0
 24 13  1  0
 13 21  1  0
 14 15  1  0
 18 15  2  0
 15 19  1  0
 16 17  2  0
 16 20  1  0
 17 18  1  0
 19 20  2  0
 21 22  1  0
 22 26  1  0
 22 23  2  0
 21 25  1  0
 16 27  1  0
  2 28  1  0
  3 29  1  0
  4 30  1  0
  5 31  1  0
  6 32  1  0
  8 33  1  0
  9 34  1  0
 10 35  1  0
 11 36  1  0
 12 37  1  0
 13 38  1  0
 13 39  1  0
 17 40  1  0
 18 41  1  0
 19 42  1  0
 20 43  1  0
 21 44  1  0
 25 45  1  0
 25 46  1  0
 25 47  1  0
M  CHG  2  25   1  26  -1
M  END
> <Name>
BDB23819

> <Target>
Kinesin Spindle Protein Eg5

> <Ki_in_nM>
 150

> <Kd_from_ITC>
false

> <Uniprot_ID>
P52732

> <source_organism>
Homo sapiens (human)

> <SourceTag>
KIF11
$$$$
