BDB23778
  SciTegic07051219573D

 53 55  0  0  0  0            999 V2000
    3.9242    0.7596   -1.5352 C   0  0
    3.9409   -0.2805   -0.0342 S   0  0
    5.1061    1.7350   -1.5214 C   0  0  1  0  0  0
    5.0504    2.5750   -2.7623 C   0  0
    5.8117    3.5396   -2.8929 O   0  0
    4.1540    2.2783   -3.7397 O   0  5
    5.0220    2.5999   -0.3367 N   0  3
    2.5457   -1.4710   -0.0072 C   0  0
    1.2084   -0.6974   -0.0001 C   0  0
    0.0048    1.3871    0.0001 C   0  0
    1.2089    0.6915    0.0001 C   0  0
    0.0043   -1.3930   -0.0003 C   0  0
   -1.1987   -0.6980   -0.0003 C   0  0
   -1.1983    0.6923   -0.0001 C   0  0
    2.6673   -2.4368   -1.2166 C   0  0
    1.7560   -3.4756   -1.3858 C   0  0
    1.9627   -4.4294   -2.3746 C   0  0
    3.0814   -4.3476   -3.1963 C   0  0
    3.9926   -3.3124   -3.0289 C   0  0
    3.7858   -2.3578   -2.0392 C   0  0
    2.6399   -2.3075    1.3067 C   0  0
    2.5462   -1.3788    2.5339 C   0  0
    2.6118   -2.2207    3.8220 C   0  0
    3.9439   -2.9935    3.8636 C   0  0
    4.0389   -3.9218    2.6378 C   0  0
    3.9734   -3.0800    1.3495 C   0  0
    3.9936    0.1174   -2.4256 H   0  0
    2.9840    1.3290   -1.5760 H   0  0
    6.0522    1.1749   -1.4884 H   0  0
    5.0468    2.0190    0.5135 H   0  0
    4.1396    3.1306   -0.3624 H   0  0
    5.8170    3.2547   -0.3290 H   0  0
    0.0048    2.4871    0.0003 H   0  0
    2.1617    1.2413    0.0003 H   0  0
    0.0042   -2.4930   -0.0005 H   0  0
   -2.1515   -1.2478   -0.0004 H   0  0
   -2.1508    1.2424   -0.0001 H   0  0
    0.8711   -3.5413   -0.7357 H   0  0
    1.2414   -5.2492   -2.5075 H   0  0
    3.2449   -5.1028   -3.9791 H   0  0
    4.8775   -3.2480   -3.6791 H   0  0
    4.5080   -1.5387   -1.9068 H   0  0
    1.8047   -3.0230    1.3272 H   0  0
    1.5951   -0.8269    2.5055 H   0  0
    3.3840   -0.6662    2.5193 H   0  0
    2.5457   -1.5577    4.6973 H   0  0
    1.7744   -2.9338    3.8383 H   0  0
    3.9911   -3.5956    4.7829 H   0  0
    4.7818   -2.2810    3.8489 H   0  0
    4.9909   -4.4722    2.6674 H   0  0
    3.2021   -4.6357    2.6513 H   0  0
    4.0411   -3.7436    0.4748 H   0  0
    4.8116   -2.3678    1.3349 H   0  0
  2  1  1  0
  1  3  1  0
  2  8  1  0
  3  4  1  0
  4  6  1  0
  4  5  2  0
  3  7  1  0
  8 21  1  0
  8 15  1  0
  8  9  1  0
 11  9  2  0
  9 12  1  0
 10 11  1  0
 10 14  2  0
 12 13  2  0
 13 14  1  0
 20 15  2  0
 16 15  1  0
 16 17  2  0
 17 18  1  0
 18 19  2  0
 19 20  1  0
 21 22  1  0
 21 26  1  0
 22 23  1  0
 23 24  1  0
 24 25  1  0
 25 26  1  0
  1 27  1  0
  1 28  1  0
  3 29  1  0
  7 30  1  0
  7 31  1  0
  7 32  1  0
 10 33  1  0
 11 34  1  0
 12 35  1  0
 13 36  1  0
 14 37  1  0
 16 38  1  0
 17 39  1  0
 18 40  1  0
 19 41  1  0
 20 42  1  0
 21 43  1  0
 22 44  1  0
 22 45  1  0
 23 46  1  0
 23 47  1  0
 24 48  1  0
 24 49  1  0
 25 50  1  0
 25 51  1  0
 26 52  1  0
 26 53  1  0
M  CHG  2   6  -1   7   1
M  END
> <Name>
BDB23778

> <Target>
Kinesin Spindle Protein Eg5

> <Ki_in_nM>
 175

> <Kd_from_ITC>
false

> <Uniprot_ID>
P52732

> <source_organism>
Homo sapiens (human)

> <SourceTag>
KIF11
$$$$
