BDB23779
  SciTegic07051219573D

 53 56  0  0  0  0            999 V2000
    3.6479    0.4544    2.0393 C   0  0
    3.8787   -0.2784    0.3852 S   0  0
    4.7661    1.4615    2.3322 C   0  0  1  0  0  0
    4.5532    2.0366    3.7004 C   0  0
    5.4182    2.7559    4.2119 O   0  0
    3.4101    1.7585    4.3804 O   0  5
    6.0696    0.7856    2.2791 N   0  3
    2.5486   -1.4710    0.0066 C   0  0
    2.8143   -2.0308   -1.3889 C   0  0
    2.6060   -1.8368   -3.7804 C   0  0
    2.2796   -1.3949   -2.5030 C   0  0
    3.6776   -3.1095   -1.5532 C   0  0
    4.0037   -3.5509   -2.8295 C   0  0
    3.4676   -2.9143   -3.9433 C   0  0
    2.6258   -2.6223    1.0532 C   0  0
    1.6509   -3.6136    1.1191 C   0  0
    1.8268   -4.7097    1.9543 C   0  0
    2.9787   -4.8182    2.7254 C   0  0
    3.9538   -3.8309    2.6611 C   0  0
    3.7777   -2.7337    1.8251 C   0  0
    1.2083   -0.6957   -0.0002 C   0  0
   -1.1987   -0.6974   -0.0002 C   0  0
   -1.1997    0.6922   -0.0001 C   0  0
    0.0053   -1.3914   -0.0003 C   0  0
    0.0032    1.3877    0.0000 C   0  0
    1.2073    0.6937    0.0000 C   0  0
    0.0015    2.7770    0.0001 C   0  0
    1.2045    3.4727    0.0001 C   0  0
    2.4087    2.7790    0.0002 C   0  0
    2.4103    1.3894    0.0001 C   0  0
    2.6760    0.9680    2.0793 H   0  0
    3.6668   -0.3411    2.7987 H   0  0
    4.7489    2.2650    1.5812 H   0  0
    6.2081    0.3825    1.3414 H   0  0
    6.0935    0.0326    2.9815 H   0  0
    6.8195    1.4636    2.4761 H   0  0
    2.1820   -1.3333   -4.6617 H   0  0
    1.5977   -0.5414   -2.3741 H   0  0
    4.1021   -3.6130   -0.6722 H   0  0
    4.6859   -4.4041   -2.9588 H   0  0
    3.7259   -3.2639   -4.9537 H   0  0
    0.7395   -3.5289    0.5090 H   0  0
    1.0549   -5.4918    2.0056 H   0  0
    3.1179   -5.6862    3.3867 H   0  0
    4.8650   -3.9169    3.2713 H   0  0
    4.5505   -1.9525    1.7742 H   0  0
   -2.1509   -1.2480   -0.0003 H   0  0
   -2.1527    1.2415   -0.0001 H   0  0
    0.0060   -2.4914   -0.0004 H   0  0
   -0.9517    3.3261    0.0000 H   0  0
    1.2036    4.5727    0.0001 H   0  0
    3.3608    3.3300    0.0002 H   0  0
    3.3635    0.8403    0.0001 H   0  0
  2  1  1  0
  1  3  1  0
  2  8  1  0
  3  4  1  0
  4  6  1  0
  4  5  2  0
  3  7  1  0
  8 21  1  0
  8 15  1  0
  8  9  1  0
 11  9  2  0
  9 12  1  0
 10 11  1  0
 10 14  2  0
 12 13  2  0
 13 14  1  0
 20 15  2  0
 16 15  1  0
 16 17  2  0
 17 18  1  0
 18 19  2  0
 19 20  1  0
 26 21  2  0
 21 24  1  0
 22 23  1  0
 22 24  2  0
 23 25  2  0
 25 27  1  0
 26 30  1  0
 27 28  2  0
 28 29  1  0
 29 30  2  0
 26 25  1  0
  1 31  1  0
  1 32  1  0
  3 33  1  0
  7 34  1  0
  7 35  1  0
  7 36  1  0
 10 37  1  0
 11 38  1  0
 12 39  1  0
 13 40  1  0
 14 41  1  0
 16 42  1  0
 17 43  1  0
 18 44  1  0
 19 45  1  0
 20 46  1  0
 22 47  1  0
 23 48  1  0
 24 49  1  0
 27 50  1  0
 28 51  1  0
 29 52  1  0
 30 53  1  0
M  CHG  2   6  -1   7   1
M  END
> <Name>
BDB23779

> <Target>
Kinesin Spindle Protein Eg5

> <Ki_in_nM>
 4000

> <Kd_from_ITC>
false

> <Uniprot_ID>
P52732

> <source_organism>
Homo sapiens (human)

> <SourceTag>
KIF11
$$$$
