BDB23817
  SciTegic07051219573D

 70 72  0  0  0  0            999 V2000
    1.2084   -0.6974   -0.0001 C   0  0
   -1.1987   -0.6980   -0.0003 C   0  0
   -1.1983    0.6923   -0.0001 C   0  0
    0.0048    1.3871    0.0001 C   0  0
    1.2089    0.6915    0.0001 C   0  0
    0.0043   -1.3930   -0.0003 C   0  0
    3.7060   -0.5805    0.4793 C   0  0
    3.7071   -0.0161    1.7516 C   0  0
    4.8177    0.6878    2.2000 C   0  0
    5.9300    0.8285    1.3776 C   0  0
    5.9312    0.2655    0.1076 C   0  0
    4.8195   -0.4390   -0.3412 C   0  0
    1.8710   -2.4680    2.7610 C   0  0
    2.5245   -1.4574    0.0033 C   0  0
    2.7954   -1.9543   -1.4048 C   0  0
    3.1165   -2.9476   -3.9811 C   0  0
    2.7011   -1.6359   -3.7894 C   0  0
    2.5403   -1.1391   -2.5006 C   0  0
    3.2108   -3.2676   -1.5971 C   0  0
    3.3715   -3.7638   -2.8848 C   0  0
    1.9274   -3.6888    3.6885 C   0  0  1  0  0  0
    1.5847   -3.2593    5.0801 C   0  0
    1.5969   -2.0573    5.3682 O   0  0
    2.3555   -2.9287    1.0746 S   0  0
    1.0052   -4.7402    3.2369 N   0  3
    0.9247   -3.7658    7.3733 C   0  0  2  0  0  0
    1.2835   -4.2055    6.0578 N   0  0
    1.1164   -4.8487    8.3979 C   0  0
    1.7748   -5.8561    8.1160 O   0  0
   -0.4975   -3.1310    7.3818 C   0  0
   -1.5760   -4.0410    6.7107 C   0  0
   -2.9066   -3.2731    6.6425 C   0  0
   -1.8077   -5.3586    7.4788 C   0  0
    0.5681   -4.7033    9.6707 O   0  0
    0.8953   -5.8423   10.4706 C   0  0
   -2.1515   -1.2478   -0.0004 H   0  0
   -2.1508    1.2424   -0.0001 H   0  0
    0.0048    2.4871    0.0003 H   0  0
    2.1617    1.2413    0.0003 H   0  0
    0.0042   -2.4930   -0.0005 H   0  0
    2.8275   -0.1274    2.4027 H   0  0
    4.8172    1.1338    3.2055 H   0  0
    6.8093    1.3859    1.7328 H   0  0
    6.8112    0.3770   -0.5428 H   0  0
    4.8210   -0.8850   -1.3468 H   0  0
    0.8466   -2.0671    2.7510 H   0  0
    2.5546   -1.6933    3.1386 H   0  0
    3.2438   -3.3406   -5.0006 H   0  0
    2.4994   -0.9903   -4.6570 H   0  0
    2.2110   -0.1006   -2.3486 H   0  0
    3.4122   -3.9134   -0.7297 H   0  0
    3.7004   -4.8024   -3.0369 H   0  0
    2.9446   -4.1070    3.6677 H   0  0
    1.2658   -5.0216    2.2809 H   0  0
    0.0482   -4.3597    3.2262 H   0  0
    1.0535   -5.5528    3.8680 H   0  0
    1.6166   -2.9646    7.6720 H   0  0
    1.3184   -5.2109    5.8370 H   0  0
   -0.7946   -2.9330    8.4223 H   0  0
   -0.4635   -2.1677    6.8518 H   0  0
   -1.2065   -4.2996    5.7075 H   0  0
   -2.7776   -2.3584    6.0453 H   0  0
   -3.2343   -3.0064    7.6581 H   0  0
   -3.6697   -3.9095    6.1706 H   0  0
   -2.1224   -5.1052    8.5019 H   0  0
   -0.8494   -5.8963    7.5288 H   0  0
   -2.5708   -5.9757    6.9822 H   0  0
    1.9888   -5.9307   10.5508 H   0  0
    0.4895   -6.7492    9.9986 H   0  0
    0.4617   -5.7255   11.4747 H   0  0
 24 14  1  0
 14  7  1  0
 14  1  1  0
  5  1  2  0
  1  6  1  0
  2  3  1  0
  2  6  2  0
  3  4  2  0
  4  5  1  0
 12  7  2  0
  8  7  1  0
  8  9  2  0
  9 10  1  0
 10 11  2  0
 11 12  1  0
 24 13  1  0
 13 21  1  0
 14 15  1  0
 18 15  2  0
 15 19  1  0
 16 17  2  0
 16 20  1  0
 17 18  1  0
 19 20  2  0
 21 22  1  0
 22 27  1  0
 22 23  2  0
 21 25  1  0
 27 26  1  0
 26 28  1  0
 28 34  1  0
 28 29  2  0
 26 30  1  0
 30 31  1  0
 31 32  1  0
 31 33  1  0
 34 35  1  0
  2 36  1  0
  3 37  1  0
  4 38  1  0
  5 39  1  0
  6 40  1  0
  8 41  1  0
  9 42  1  0
 10 43  1  0
 11 44  1  0
 12 45  1  0
 13 46  1  0
 13 47  1  0
 16 48  1  0
 17 49  1  0
 18 50  1  0
 19 51  1  0
 20 52  1  0
 21 53  1  0
 25 54  1  0
 25 55  1  0
 25 56  1  0
 26 57  1  0
 27 58  1  0
 30 59  1  0
 30 60  1  0
 31 61  1  0
 32 62  1  0
 32 63  1  0
 32 64  1  0
 33 65  1  0
 33 66  1  0
 33 67  1  0
 35 68  1  0
 35 69  1  0
 35 70  1  0
M  CHG  1  25   1
M  END
> <Name>
BDB23817

> <Target>
Kinesin Spindle Protein Eg5

> <Ki_in_nM>
 1750

> <Kd_from_ITC>
false

> <Uniprot_ID>
P52732

> <source_organism>
Homo sapiens (human)

> <SourceTag>
KIF11
$$$$
