BDB23833
  SciTegic07051219573D

 45 48  0  0  0  0            999 V2000
    1.1828   -0.7119    0.0221 C   0  0
   -1.2375   -0.7633   -0.0038 C   0  0
   -1.2249    0.6300   -0.0030 C   0  0
   -0.0201    1.3378    0.0097 C   0  0
    1.2051    0.6739    0.0222 C   0  0
   -0.0093   -1.4042    0.0093 C   0  0
    3.2190   -1.4853    1.2935 C   0  0
    4.0951   -2.4850    1.6997 C   0  0
    4.7896   -2.3565    2.8963 C   0  0
    4.6077   -1.2282    3.6872 C   0  0
    3.7315   -0.2282    3.2822 C   0  0
    3.0369   -0.3567    2.0853 C   0  0
    4.6716   -2.7426   -1.5377 C   0  0
    2.3893   -1.6502    0.0322 C   0  0
    1.6341   -2.9789    0.0225 C   0  0
   -0.0772   -5.1399   -0.0049 C   0  0
   -0.6219   -3.8573   -0.0038 C   0  0
    0.2668   -2.7954    0.0095 C   0  0
    2.1844   -4.2504    0.0227 C   0  0
    1.3066   -5.3328    0.0082 C   0  0
    5.6020   -2.4767   -2.7244 C   0  0  1  0  0  0
    6.6977   -3.4964   -2.7479 C   0  0
    7.4521   -3.5714   -3.7237 O   0  0
    3.4118   -1.4475   -1.4524 S   0  0
    4.8537   -2.5040   -3.9897 N   0  3
    6.8755   -4.3225   -1.6842 O   0  5
    5.2772   -1.1053    4.8399 F   0  0
   -2.1807   -1.3292   -0.0143 H   0  0
   -2.1770    1.1807   -0.0126 H   0  0
   -0.0392    2.4377    0.0099 H   0  0
    2.1546    1.2291    0.0318 H   0  0
    4.2388   -3.3780    1.0737 H   0  0
    5.4832   -3.1475    3.2176 H   0  0
    3.5880    0.6645    3.9086 H   0  0
    2.3431    0.4343    1.7644 H   0  0
    4.1850   -3.7207   -1.6666 H   0  0
    5.2577   -2.7457   -0.6069 H   0  0
   -0.7463   -6.0130   -0.0161 H   0  0
   -1.7099   -3.6954   -0.0132 H   0  0
    3.2742   -4.4001    0.0338 H   0  0
    1.7100   -6.3562    0.0071 H   0  0
    6.0428   -1.4756   -2.6084 H   0  0
    4.1195   -1.7822   -3.9597 H   0  0
    4.4136   -3.4289   -4.0981 H   0  0
    5.4886   -2.3241   -4.7806 H   0  0
 24 14  1  0
 14  7  1  0
 14  1  1  0
  5  1  2  0
  1  6  1  0
  2  3  1  0
  2  6  2  0
  3  4  2  0
  4  5  1  0
 12  7  2  0
  8  7  1  0
  8  9  2  0
  9 10  1  0
 10 11  2  0
 11 12  1  0
 24 13  1  0
 13 21  1  0
 14 15  1  0
 18 15  2  0
 15 19  1  0
 16 17  2  0
 16 20  1  0
 17 18  1  0
 19 20  2  0
 21 22  1  0
 22 26  1  0
 22 23  2  0
 21 25  1  0
  6 18  1  0
 10 27  1  0
  2 28  1  0
  3 29  1  0
  4 30  1  0
  5 31  1  0
  8 32  1  0
  9 33  1  0
 11 34  1  0
 12 35  1  0
 13 36  1  0
 13 37  1  0
 16 38  1  0
 17 39  1  0
 19 40  1  0
 20 41  1  0
 21 42  1  0
 25 43  1  0
 25 44  1  0
 25 45  1  0
M  CHG  2  25   1  26  -1
M  END
> <Name>
BDB23833

> <Target>
Kinesin Spindle Protein Eg5

> <Ki_in_nM>
 6000

> <Kd_from_ITC>
false

> <Uniprot_ID>
P52732

> <source_organism>
Homo sapiens (human)

> <SourceTag>
KIF11
$$$$
