BDB23818
  SciTegic07051219573D

 91 96  0  0  0  0            999 V2000
    1.2084   -0.6974   -0.0001 C   0  0
   -1.1987   -0.6980   -0.0003 C   0  0
   -1.1983    0.6923   -0.0001 C   0  0
    0.0048    1.3871    0.0001 C   0  0
    1.2089    0.6915    0.0001 C   0  0
    0.0043   -1.3930   -0.0003 C   0  0
    2.2815   -2.9672    0.0191 C   0  0
    2.0678   -3.6408    1.2172 C   0  0
    1.9431   -5.0244    1.2237 C   0  0
    2.0325   -5.7360    0.0325 C   0  0
    2.2466   -5.0639   -1.1643 C   0  0
    2.3714   -3.6789   -1.1709 C   0  0
    3.9734    0.6329   -1.5747 C   0  0
    2.5440   -1.4690    0.0051 C   0  0
    3.4238   -1.1094    1.2006 C   0  0
    5.0534   -0.5568    3.3845 C   0  0
    5.5859   -1.1730    2.2590 C   0  0
    4.7708   -1.4494    1.1669 C   0  0
    2.8914   -0.4926    2.3280 C   0  0
    3.7057   -0.2164    3.4192 C   0  0
    4.5540    0.9672   -2.9504 C   0  0  1  0  0  0
    4.8832    2.4233   -3.0105 C   0  0
    4.3764    3.2032   -2.1964 O   0  0
    3.4722   -1.1060   -1.5198 S   0  0
    5.7466    0.1578   -3.2362 N   0  3
    6.9077    3.7425   -4.1693 C   0  0  2  0  0  0
    5.7140    2.9082   -4.0099 N   0  0
    6.8977    4.7017   -2.9840 C   0  0
    8.0359    4.2221   -2.9371 O   0  0
    6.6676    4.5813   -5.4237 C   0  0
    6.4933    5.5864   -2.0378 O   0  5
    6.9789    6.3584   -5.5775 S   0  0
    7.9555    6.7404   -7.0655 C   0  0
    8.1817    8.2429   -7.0710 C   0  0
    8.7024   10.9682   -6.8991 C   0  0
    9.4994   10.1581   -7.6981 C   0  0
    9.2390    8.7948   -7.7839 C   0  0
    7.3844    9.0544   -6.2708 C   0  0
    7.6446   10.4164   -6.1852 C   0  0
    7.1840    6.3127   -8.3302 C   0  0
    5.8717    6.9072  -10.2611 C   0  0
    5.6614    5.5599  -10.5328 C   0  0
    6.2113    4.5896   -9.7045 C   0  0
    6.9723    4.9660   -8.6033 C   0  0
    6.6321    7.2833   -9.1609 C   0  0
    9.3035    6.0364   -6.9546 C   0  0
    9.9880    5.6242   -8.0916 C   0  0
    9.8816    5.8757   -5.6996 C   0  0
   11.1419    5.3028   -5.5831 C   0  0
   11.8258    4.8903   -6.7212 C   0  0
   11.2494    5.0508   -7.9749 C   0  0
   -2.1515   -1.2478   -0.0004 H   0  0
   -2.1508    1.2424   -0.0001 H   0  0
    0.0048    2.4871    0.0003 H   0  0
    2.1617    1.2413    0.0003 H   0  0
    0.0042   -2.4930   -0.0005 H   0  0
    1.9975   -3.0779    2.1596 H   0  0
    1.7736   -5.5570    2.1711 H   0  0
    1.9338   -6.8315    0.0378 H   0  0
    2.3173   -5.6271   -2.1065 H   0  0
    2.5413   -3.1467   -2.1184 H   0  0
    4.7345    0.8200   -0.8029 H   0  0
    3.0989    1.2721   -1.3831 H   0  0
    5.6981   -0.3381    4.2485 H   0  0
    6.6522   -1.4421    2.2319 H   0  0
    5.1925   -1.9375    0.2758 H   0  0
    1.8252   -0.2234    2.3556 H   0  0
    3.2844    0.2715    4.3105 H   0  0
    3.8012    0.7304   -3.7167 H   0  0
    5.4855   -0.8380   -3.2052 H   0  0
    6.4532    0.3424   -2.5099 H   0  0
    6.1255    0.3939   -4.1644 H   0  0
    7.8466    3.1744   -4.2458 H   0  0
    6.1437    2.2616   -4.6868 H   0  0
    6.0251    4.2488   -6.2523 H   0  0
    7.6233    4.0376   -5.4550 H   0  0
    8.9083   12.0466   -6.8312 H   0  0
   10.3362   10.5949   -8.2628 H   0  0
    9.8703    8.1532   -8.4162 H   0  0
    6.5478    8.6177   -5.7057 H   0  0
    7.0137   11.0582   -5.5526 H   0  0
    5.4362    7.6752  -10.9172 H   0  0
    5.0593    5.2623  -11.4040 H   0  0
    6.0447    3.5238   -9.9198 H   0  0
    7.4073    4.1975   -7.9475 H   0  0
    6.7980    8.3493   -8.9461 H   0  0
    9.5316    5.7515   -9.0843 H   0  0
    9.3408    6.2022   -4.7991 H   0  0
   11.5987    5.1756   -4.5905 H   0  0
   12.8237    4.4367   -6.6288 H   0  0
   11.7907    4.7244   -8.8752 H   0  0
 24 14  1  0
 14  7  1  0
 14  1  1  0
  5  1  2  0
  1  6  1  0
  2  3  1  0
  2  6  2  0
  3  4  2  0
  4  5  1  0
 12  7  2  0
  8  7  1  0
  8  9  2  0
  9 10  1  0
 10 11  2  0
 11 12  1  0
 24 13  1  0
 13 21  1  0
 14 15  1  0
 18 15  2  0
 15 19  1  0
 16 17  2  0
 16 20  1  0
 17 18  1  0
 19 20  2  0
 21 22  1  0
 22 27  1  0
 22 23  2  0
 21 25  1  0
 27 26  1  0
 26 28  1  0
 28 31  1  0
 28 29  2  0
 26 30  1  0
 30 32  1  0
 32 33  1  0
 33 34  1  0
 33 40  1  0
 33 46  1  0
 37 34  2  0
 34 38  1  0
 35 36  2  0
 35 39  1  0
 36 37  1  0
 38 39  2  0
 44 40  2  0
 40 45  1  0
 41 42  1  0
 41 45  2  0
 42 43  2  0
 43 44  1  0
 47 46  2  0
 46 48  1  0
 47 51  1  0
 48 49  2  0
 49 50  1  0
 50 51  2  0
  2 52  1  0
  3 53  1  0
  4 54  1  0
  5 55  1  0
  6 56  1  0
  8 57  1  0
  9 58  1  0
 10 59  1  0
 11 60  1  0
 12 61  1  0
 13 62  1  0
 13 63  1  0
 16 64  1  0
 17 65  1  0
 18 66  1  0
 19 67  1  0
 20 68  1  0
 21 69  1  0
 25 70  1  0
 25 71  1  0
 25 72  1  0
 26 73  1  0
 27 74  1  0
 30 75  1  0
 30 76  1  0
 35 77  1  0
 36 78  1  0
 37 79  1  0
 38 80  1  0
 39 81  1  0
 41 82  1  0
 42 83  1  0
 43 84  1  0
 44 85  1  0
 45 86  1  0
 47 87  1  0
 48 88  1  0
 49 89  1  0
 50 90  1  0
 51 91  1  0
M  CHG  2  25   1  31  -1
M  END
> <Name>
BDB23818

> <Target>
Kinesin Spindle Protein Eg5

> <Ki_in_nM>
 6750

> <Kd_from_ITC>
false

> <Uniprot_ID>
P52732

> <source_organism>
Homo sapiens (human)

> <SourceTag>
KIF11
$$$$
