BDB23812
  SciTegic07051219573D

 50 52  0  0  0  0            999 V2000
    1.2084   -0.6974   -0.0001 C   0  0
   -1.1987   -0.6980   -0.0003 C   0  0
   -1.1983    0.6923   -0.0001 C   0  0
    0.0048    1.3871    0.0001 C   0  0
    1.2089    0.6915    0.0001 C   0  0
    0.0043   -1.3930   -0.0003 C   0  0
    3.7192   -0.5759    0.4398 C   0  0
    3.7400    0.0266    1.6944 C   0  0
    4.8667    0.7226    2.1140 C   0  0
    5.9755    0.8175    1.2805 C   0  0
    5.9571    0.2165    0.0281 C   0  0
    4.8294   -0.4802   -0.3919 C   0  0
    1.9117   -2.3875    2.7947 C   0  0
    2.5246   -1.4574    0.0033 C   0  0
    2.7711   -1.9912   -1.3955 C   0  0
    3.0431   -3.0468   -3.9526 C   0  0
    2.6601   -1.7219   -3.7854 C   0  0
    2.5238   -1.1940   -2.5062 C   0  0
    3.1542   -3.3176   -1.5633 C   0  0
    3.2903   -3.8450   -2.8413 C   0  0
    1.9575   -3.5915    3.7418 C   0  0  1  0  0  0
    1.6502   -3.1425    5.1376 C   0  0
    1.7315   -1.9436    5.4287 O   0  0
    2.3650   -2.8974    1.1139 S   0  0
    1.0114   -4.6336    3.3191 N   0  0
    1.2863   -4.0718    6.1058 O   0  0
    1.0603   -3.4018    7.3490 C   0  0
   -2.1515   -1.2478   -0.0004 H   0  0
   -2.1508    1.2424   -0.0001 H   0  0
    0.0048    2.4871    0.0003 H   0  0
    2.1617    1.2413    0.0003 H   0  0
    0.0042   -2.4930   -0.0005 H   0  0
    2.8632   -0.0485    2.3544 H   0  0
    4.8816    1.1986    3.1055 H   0  0
    6.8676    1.3686    1.6128 H   0  0
    6.8345    0.2917   -0.6311 H   0  0
    4.8155   -0.9563   -1.3834 H   0  0
    0.8950   -1.9677    2.7889 H   0  0
    2.6169   -1.6203    3.1468 H   0  0
    3.1510   -3.4644   -4.9645 H   0  0
    2.4646   -1.0906   -4.6648 H   0  0
    2.2201   -0.1451   -2.3736 H   0  0
    3.3493   -3.9492   -0.6840 H   0  0
    3.5936   -4.8940   -2.9741 H   0  0
    2.9683   -4.0243    3.7118 H   0  0
    1.2556   -4.9362    2.3654 H   0  0
    0.0612   -4.2362    3.3129 H   0  0
    0.2531   -2.6644    7.2277 H   0  0
    1.9811   -2.8882    7.6625 H   0  0
    0.7723   -4.1365    8.1153 H   0  0
 24 14  1  0
 14  7  1  0
 14  1  1  0
  5  1  2  0
  1  6  1  0
  2  3  1  0
  2  6  2  0
  3  4  2  0
  4  5  1  0
 12  7  2  0
  8  7  1  0
  8  9  2  0
  9 10  1  0
 10 11  2  0
 11 12  1  0
 24 13  1  0
 13 21  1  0
 14 15  1  0
 18 15  2  0
 15 19  1  0
 16 17  2  0
 16 20  1  0
 17 18  1  0
 19 20  2  0
 21 22  1  0
 22 26  1  0
 22 23  2  0
 21 25  1  0
 26 27  1  0
  2 28  1  0
  3 29  1  0
  4 30  1  0
  5 31  1  0
  6 32  1  0
  8 33  1  0
  9 34  1  0
 10 35  1  0
 11 36  1  0
 12 37  1  0
 13 38  1  0
 13 39  1  0
 16 40  1  0
 17 41  1  0
 18 42  1  0
 19 43  1  0
 20 44  1  0
 21 45  1  0
 25 46  1  0
 25 47  1  0
 27 48  1  0
 27 49  1  0
 27 50  1  0
M  END
> <Name>
BDB23812

> <Target>
Kinesin Spindle Protein Eg5

> <Ki_in_nM>
 120

> <Kd_from_ITC>
false

> <Uniprot_ID>
P52732

> <source_organism>
Homo sapiens (human)

> <SourceTag>
KIF11
$$$$
