BDB23781
  SciTegic07051219573D

 50 53  0  0  0  0            999 V2000
    3.6203    0.4621    2.0397 C   0  0
    3.8554   -0.2689    0.3855 S   0  0
    4.7329    1.4753    2.3331 C   0  0  1  0  0  0
    4.5166    2.0488    3.7014 C   0  0
    5.3774    2.7728    4.2132 O   0  0
    3.3750    1.7641    4.3813 O   0  5
    6.0401    0.8067    2.2799 N   0  3
    2.5319   -1.4687    0.0064 C   0  0
    2.8009   -2.0266   -1.3893 C   0  0
    2.5917   -1.8331   -3.7807 C   0  0
    2.2627   -1.3934   -2.5032 C   0  0
    3.6702   -3.1004   -1.5538 C   0  0
    3.9988   -3.5396   -2.8302 C   0  0
    3.4594   -2.9057   -3.9438 C   0  0
    2.6155   -2.6200    1.0526 C   0  0
    1.6461   -3.6167    1.1182 C   0  0
    1.8281   -4.7121    1.9531 C   0  0
    2.9804   -4.8144    2.7243 C   0  0
    3.9501   -3.8215    2.6603 C   0  0
    3.7679   -2.7251    1.8247 C   0  0
    1.1872   -0.7009   -0.0003 C   0  0
   -0.0121   -1.4088   -0.0004 C   0  0
   -0.0121    1.4040    0.0002 C   0  0
    1.1858    0.6942    0.0001 C   0  0
   -1.1966   -0.6870   -0.0003 C   0  0
   -3.3200   -0.0015   -0.0001 C   0  0
   -1.1966    0.6827    0.0001 C   0  0
   -2.4539    1.2095    0.0002 O   0  0
   -2.4542   -1.2132   -0.0004 O   0  0
    2.6455    0.9703    2.0799 H   0  0
    3.6436   -0.3335    2.7989 H   0  0
    4.7112    2.2790    1.5824 H   0  0
    6.1809    0.4047    1.3421 H   0  0
    6.0681    0.0537    2.9821 H   0  0
    6.7862    1.4889    2.4772 H   0  0
    2.1650   -1.3317   -4.6619 H   0  0
    1.5760   -0.5438   -2.3741 H   0  0
    4.0974   -3.6018   -0.6729 H   0  0
    4.6858   -4.3889   -2.9597 H   0  0
    3.7196   -3.2535   -4.9544 H   0  0
    0.7343   -3.5369    0.5080 H   0  0
    1.0605   -5.4984    2.0040 H   0  0
    3.1244   -5.6817    3.3853 H   0  0
    4.8617   -3.9027    3.2705 H   0  0
    4.5363   -1.9396    1.7740 H   0  0
   -0.0199   -2.5088   -0.0007 H   0  0
   -0.0188    2.5040    0.0005 H   0  0
    2.1413    1.2393    0.0002 H   0  0
   -3.9534   -0.0024   -0.8995 H   0  0
   -3.9528   -0.0021    0.8997 H   0  0
  2  1  1  0
  1  3  1  0
  2  8  1  0
  3  4  1  0
  4  6  1  0
  4  5  2  0
  3  7  1  0
  8 21  1  0
  8 15  1  0
  8  9  1  0
 11  9  2  0
  9 12  1  0
 10 11  1  0
 10 14  2  0
 12 13  2  0
 13 14  1  0
 20 15  2  0
 16 15  1  0
 16 17  2  0
 17 18  1  0
 18 19  2  0
 19 20  1  0
 24 21  2  0
 21 22  1  0
 25 22  2  0
 27 23  2  0
 24 23  1  0
 25 29  1  0
 26 28  1  0
 26 29  1  0
 28 27  1  0
 27 25  1  0
  1 30  1  0
  1 31  1  0
  3 32  1  0
  7 33  1  0
  7 34  1  0
  7 35  1  0
 10 36  1  0
 11 37  1  0
 12 38  1  0
 13 39  1  0
 14 40  1  0
 16 41  1  0
 17 42  1  0
 18 43  1  0
 19 44  1  0
 20 45  1  0
 22 46  1  0
 23 47  1  0
 24 48  1  0
 26 49  1  0
 26 50  1  0
M  CHG  2   6  -1   7   1
M  END
> <Name>
BDB23781

> <Target>
Kinesin Spindle Protein Eg5

> <Ki_in_nM>
  200

> <Kd_from_ITC>
false

> <Uniprot_ID>
P52732

> <source_organism>
Homo sapiens (human)

> <SourceTag>
KIF11
$$$$
