BDB23814
  SciTegic07051219573D

 67 69  0  0  0  0            999 V2000
    1.2084   -0.6974   -0.0001 C   0  0
   -1.1987   -0.6980   -0.0003 C   0  0
   -1.1983    0.6923   -0.0001 C   0  0
    0.0048    1.3871    0.0001 C   0  0
    1.2089    0.6915    0.0001 C   0  0
    0.0043   -1.3930   -0.0003 C   0  0
    3.6899   -0.6071    0.5599 C   0  0
    3.6203   -0.0484    1.8327 C   0  0
    4.7089    0.6424    2.3502 C   0  0
    5.8696    0.7757    1.5964 C   0  0
    5.9412    0.2183    0.3259 C   0  0
    4.8516   -0.4731   -0.1920 C   0  0
    1.8748   -2.6139    2.7083 C   0  0
    2.5254   -1.4579    0.0039 C   0  0
    2.8413   -1.8835   -1.4189 C   0  0
    3.2640   -2.7416   -4.0290 C   0  0
    2.8366   -1.4423   -3.7859 C   0  0
    2.6250   -1.0132   -2.4802 C   0  0
    3.2687   -3.1843   -1.6629 C   0  0
    3.4801   -3.6130   -2.9673 C   0  0
    1.7674   -3.9050    3.5318 C   0  0  1  0  0  0
    1.4718   -3.5471    4.9548 C   0  0
    1.9186   -2.4956    5.4262 O   0  0
    2.3269   -2.9849    0.9911 S   0  0
    0.7211   -4.7869    2.9967 N   0  3
    0.3762   -3.9942    7.0971 C   0  0  2  0  0  0
    0.6706   -4.3734    5.7425 N   0  0
    0.5380   -5.1770    8.0048 C   0  0
    1.1903   -6.1581    7.6306 O   0  0
   -0.0412   -5.1628    9.2728 O   0  0
    0.2509   -6.3864    9.9516 C   0  0
   -1.0618   -3.4432    7.2197 C   0  0
   -2.0633   -4.5208    6.7644 C   0  0
   -1.2337   -2.1845    6.3476 C   0  0
   -2.1515   -1.2478   -0.0004 H   0  0
   -2.1508    1.2424   -0.0001 H   0  0
    0.0048    2.4871    0.0003 H   0  0
    2.1617    1.2413    0.0003 H   0  0
    0.0042   -2.4930   -0.0005 H   0  0
    2.7023   -0.1538    2.4296 H   0  0
    4.6526    1.0838    3.3562 H   0  0
    6.7315    1.3226    2.0063 H   0  0
    6.8597    0.3239   -0.2702 H   0  0
    4.9089   -0.9145   -1.1979 H   0  0
    0.9073   -2.0909    2.7271 H   0  0
    2.6405   -1.9623    3.1545 H   0  0
    3.4314   -3.0812   -5.0618 H   0  0
    2.6657   -0.7531   -4.6260 H   0  0
    2.2864    0.0155   -2.2876 H   0  0
    3.4394   -3.8738   -0.8229 H   0  0
    3.8185   -4.6418   -3.1602 H   0  0
    2.7211   -4.4502    3.4750 H   0  0
    0.9505   -5.0196    2.0198 H   0  0
   -0.1791   -4.2870    3.0210 H   0  0
    0.6596   -5.6485    3.5577 H   0  0
    1.0803   -3.2017    7.3909 H   0  0
    0.2922   -5.2499    5.3558 H   0  0
    1.3409   -6.4994   10.0482 H   0  0
   -0.1536   -7.2304    9.3737 H   0  0
   -0.2070   -6.3729   10.9517 H   0  0
   -1.2504   -3.1758    8.2699 H   0  0
   -1.9581   -5.4130    7.3991 H   0  0
   -1.8630   -4.7906    5.7170 H   0  0
   -3.0877   -4.1296    6.8512 H   0  0
   -1.0280   -2.4435    5.2985 H   0  0
   -0.5174   -1.4179    6.6781 H   0  0
   -2.2600   -1.7998    6.4414 H   0  0
 24 14  1  0
 14  7  1  0
 14  1  1  0
  5  1  2  0
  1  6  1  0
  2  3  1  0
  2  6  2  0
  3  4  2  0
  4  5  1  0
 12  7  2  0
  8  7  1  0
  8  9  2  0
  9 10  1  0
 10 11  2  0
 11 12  1  0
 24 13  1  0
 13 21  1  0
 14 15  1  0
 18 15  2  0
 15 19  1  0
 16 17  2  0
 16 20  1  0
 17 18  1  0
 19 20  2  0
 21 22  1  0
 22 27  1  0
 22 23  2  0
 21 25  1  0
 27 26  1  0
 26 28  1  0
 26 32  1  0
 28 30  1  0
 28 29  2  0
 30 31  1  0
 32 33  1  0
 32 34  1  0
  2 35  1  0
  3 36  1  0
  4 37  1  0
  5 38  1  0
  6 39  1  0
  8 40  1  0
  9 41  1  0
 10 42  1  0
 11 43  1  0
 12 44  1  0
 13 45  1  0
 13 46  1  0
 16 47  1  0
 17 48  1  0
 18 49  1  0
 19 50  1  0
 20 51  1  0
 21 52  1  0
 25 53  1  0
 25 54  1  0
 25 55  1  0
 26 56  1  0
 27 57  1  0
 31 58  1  0
 31 59  1  0
 31 60  1  0
 32 61  1  0
 33 62  1  0
 33 63  1  0
 33 64  1  0
 34 65  1  0
 34 66  1  0
 34 67  1  0
M  CHG  1  25   1
M  END
> <Name>
BDB23814

> <Target>
Kinesin Spindle Protein Eg5

> <Ki_in_nM>
 600

> <Kd_from_ITC>
false

> <Uniprot_ID>
P52732

> <source_organism>
Homo sapiens (human)

> <SourceTag>
KIF11
$$$$
