BDB23813
  SciTegic07051219573D

 70 74  0  0  0  0            999 V2000
    1.2084   -0.6974   -0.0001 C   0  0
   -1.1987   -0.6980   -0.0003 C   0  0
   -1.1983    0.6923   -0.0001 C   0  0
    0.0048    1.3871    0.0001 C   0  0
    1.2089    0.6915    0.0001 C   0  0
    0.0043   -1.3930   -0.0003 C   0  0
    2.2768   -2.9676   -0.0009 C   0  0
    2.1011   -3.6648    1.1899 C   0  0
    1.9717   -5.0479    1.1728 C   0  0
    2.0183   -5.7355   -0.0347 C   0  0
    2.1942   -5.0399   -1.2243 C   0  0
    2.3237   -3.6555   -1.2073 C   0  0
    3.9655    0.6470   -1.6161 C   0  0
    2.5409   -1.4674    0.0039 C   0  0
    3.4050   -1.1136    1.2115 C   0  0
    5.0063   -0.5672    3.4176 C   0  0
    5.5701   -1.1007    2.2655 C   0  0
    4.7690   -1.3741    1.1622 C   0  0
    2.8412   -0.5795    2.3657 C   0  0
    3.6415   -0.3064    3.4679 C   0  0
    4.6272    0.9112   -2.9754 C   0  0  1  0  0  0
    4.9563    2.3641   -3.1261 C   0  0
    4.3621    3.2046   -2.4413 O   0  0
    3.4810   -1.0990   -1.5164 S   0  0
    5.8344    0.0916   -3.1467 N   0  0
    5.9045    2.7630   -4.0690 O   0  0
    6.0497    4.1898   -4.0726 C   0  0
    6.7682    4.6602   -2.8191 C   0  0
    8.0074    5.4699   -0.4663 C   0  0
    8.2590    4.2055   -0.9841 C   0  0
    7.6389    3.8006   -2.1610 C   0  0
    6.5164    5.9258   -2.3002 C   0  0
    7.1359    6.3304   -1.1244 C   0  0
    6.8222    4.5787   -5.3118 C   0  0
    7.1180    3.6032   -6.2560 C   0  0
    7.1762    5.9031   -5.5462 C   0  0
    7.8260    6.2504   -6.7240 C   0  0
    8.1222    5.2739   -7.6684 C   0  0
    7.7685    3.9509   -7.4348 C   0  0
   -2.1515   -1.2478   -0.0004 H   0  0
   -2.1508    1.2424   -0.0001 H   0  0
    0.0048    2.4871    0.0003 H   0  0
    2.1617    1.2413    0.0003 H   0  0
    0.0042   -2.4930   -0.0005 H   0  0
    2.0647   -3.1208    2.1453 H   0  0
    1.8324   -5.5989    2.1146 H   0  0
    1.9158   -6.8306   -0.0481 H   0  0
    2.2310   -5.5842   -2.1796 H   0  0
    2.4635   -3.1048   -2.1492 H   0  0
    4.6779    0.8778   -0.8104 H   0  0
    3.0733    1.2820   -1.5128 H   0  0
    5.6399   -0.3509    4.2904 H   0  0
    6.6498   -1.3069    2.2260 H   0  0
    5.2154   -1.7967    0.2500 H   0  0
    1.7614   -0.3734    2.4056 H   0  0
    3.1955    0.1160    4.3804 H   0  0
    3.9104    0.6290   -3.7606 H   0  0
    5.5722   -0.9021   -3.0785 H   0  0
    6.4973    0.3167   -2.3912 H   0  0
    5.0599    4.6696   -4.0810 H   0  0
    8.4979    5.7903    0.4647 H   0  0
    8.9486    3.5250   -0.4632 H   0  0
    7.8378    2.7994   -2.5710 H   0  0
    5.8267    6.6065   -2.8209 H   0  0
    6.9370    7.3314   -0.7141 H   0  0
    6.8376    2.5558   -6.0709 H   0  0
    6.9416    6.6755   -4.7991 H   0  0
    8.1062    7.2978   -6.9093 H   0  0
    8.6367    5.5490   -8.6009 H   0  0
    8.0029    3.1786   -8.1821 H   0  0
 24 14  1  0
 14  7  1  0
 14  1  1  0
  5  1  2  0
  1  6  1  0
  2  3  1  0
  2  6  2  0
  3  4  2  0
  4  5  1  0
 12  7  2  0
  8  7  1  0
  8  9  2  0
  9 10  1  0
 10 11  2  0
 11 12  1  0
 24 13  1  0
 13 21  1  0
 14 15  1  0
 18 15  2  0
 15 19  1  0
 16 17  2  0
 16 20  1  0
 17 18  1  0
 19 20  2  0
 21 22  1  0
 22 26  1  0
 22 23  2  0
 21 25  1  0
 26 27  1  0
 27 34  1  0
 27 28  1  0
 31 28  2  0
 28 32  1  0
 29 30  2  0
 29 33  1  0
 30 31  1  0
 32 33  2  0
 35 34  2  0
 34 36  1  0
 35 39  1  0
 36 37  2  0
 37 38  1  0
 38 39  2  0
  2 40  1  0
  3 41  1  0
  4 42  1  0
  5 43  1  0
  6 44  1  0
  8 45  1  0
  9 46  1  0
 10 47  1  0
 11 48  1  0
 12 49  1  0
 13 50  1  0
 13 51  1  0
 16 52  1  0
 17 53  1  0
 18 54  1  0
 19 55  1  0
 20 56  1  0
 21 57  1  0
 25 58  1  0
 25 59  1  0
 27 60  1  0
 29 61  1  0
 30 62  1  0
 31 63  1  0
 32 64  1  0
 33 65  1  0
 35 66  1  0
 36 67  1  0
 37 68  1  0
 38 69  1  0
 39 70  1  0
M  END
> <Name>
BDB23813

> <Target>
Kinesin Spindle Protein Eg5

> <Ki_in_nM>
 7000

> <Kd_from_ITC>
false

> <Uniprot_ID>
P52732

> <source_organism>
Homo sapiens (human)

> <SourceTag>
KIF11
$$$$
