BDB23774
  SciTegic07051219573D

 40 41  0  0  0  0            999 V2000
    3.7299    0.5267   -1.9101 C   0  0
    3.8956   -0.2793   -0.2836 S   0  0
    4.8827    1.5127   -2.1289 C   0  0  1  0  0  0
    4.7139    2.1670   -3.4671 C   0  0
    5.4253    3.1274   -3.7812 O   0  0
    3.7713    1.7071   -4.3310 O   0  5
    4.8676    2.5356   -1.0744 N   0  3
    2.7252   -2.1184    1.3715 C   0  0
    2.5390   -1.4682   -0.0112 C   0  0
    1.2084   -0.6974   -0.0001 C   0  0
    0.0048    1.3871    0.0001 C   0  0
    1.2089    0.6915    0.0001 C   0  0
    0.0043   -1.3930   -0.0003 C   0  0
   -1.1987   -0.6980   -0.0003 C   0  0
   -1.1983    0.6923   -0.0001 C   0  0
    2.6415   -2.5774   -1.0811 C   0  0
    1.6796   -3.5790   -1.1754 C   0  0
    1.9117   -4.6955   -1.9689 C   0  0
    3.1069   -4.8141   -2.6694 C   0  0
    4.0692   -3.8164   -2.5761 C   0  0
    3.8369   -2.6989   -1.7819 C   0  0
    3.7494   -0.2377   -2.7009 H   0  0
    2.7738    1.0688   -1.9552 H   0  0
    5.8422    0.9760   -2.0936 H   0  0
    4.9741    2.0819   -0.1559 H   0  0
    3.9720    3.0434   -1.1029 H   0  0
    5.6429    3.1973   -1.2230 H   0  0
    2.6962   -1.3476    2.1557 H   0  0
    3.6876   -2.6499    1.4097 H   0  0
    1.9104   -2.8371    1.5433 H   0  0
    0.0048    2.4871    0.0003 H   0  0
    2.1617    1.2413    0.0003 H   0  0
    0.0042   -2.4930   -0.0005 H   0  0
   -2.1515   -1.2478   -0.0004 H   0  0
   -2.1508    1.2424   -0.0001 H   0  0
    0.7342   -3.4864   -0.6208 H   0  0
    1.1500   -5.4856   -2.0430 H   0  0
    3.2906   -5.6981   -3.2977 H   0  0
    5.0147   -3.9105   -3.1304 H   0  0
    4.5997   -1.9098   -1.7076 H   0  0
  2  1  1  0
  1  3  1  0
  2  9  1  0
  3  4  1  0
  4  6  1  0
  4  5  2  0
  3  7  1  0
  9  8  1  0
  9 16  1  0
  9 10  1  0
 12 10  2  0
 10 13  1  0
 11 12  1  0
 11 15  2  0
 13 14  2  0
 14 15  1  0
 21 16  2  0
 17 16  1  0
 17 18  2  0
 18 19  1  0
 19 20  2  0
 20 21  1  0
  1 22  1  0
  1 23  1  0
  3 24  1  0
  7 25  1  0
  7 26  1  0
  7 27  1  0
  8 28  1  0
  8 29  1  0
  8 30  1  0
 11 31  1  0
 12 32  1  0
 13 33  1  0
 14 34  1  0
 15 35  1  0
 17 36  1  0
 18 37  1  0
 19 38  1  0
 20 39  1  0
 21 40  1  0
M  CHG  2   6  -1   7   1
M  END
> <Name>
BDB23774

> <Target>
Kinesin Spindle Protein Eg5

> <Ki_in_nM>
 2500

> <Kd_from_ITC>
false

> <Uniprot_ID>
P52732

> <source_organism>
Homo sapiens (human)

> <SourceTag>
KIF11
$$$$
