BDB23822
  SciTegic07051219573D

 50 52  0  0  0  0            999 V2000
    3.4221   -0.8333    1.0546 C   0  0
    3.8980   -0.4346    3.3814 C   0  0
    4.9602    0.3877    3.0228 C   0  0
    5.2533    0.5996    1.6815 C   0  0
    4.4838   -0.0110    0.6972 C   0  0
    3.1292   -1.0446    2.3980 C   0  0
    3.1287   -1.4158   -1.4257 C   0  0
    4.3388   -2.0488   -1.6953 C   0  0
    4.8114   -2.1210   -2.9997 C   0  0
    4.0751   -1.5611   -4.0378 C   0  0
    2.8669   -0.9294   -3.7711 C   0  0
    2.3938   -0.8572   -2.4655 C   0  0
    3.6919   -4.1160    0.6853 C   0  0
    2.5129   -1.4513   -0.0044 C   0  0
    1.2032   -0.6950   -0.0001 C   0  0
   -1.2029    0.6946   -0.0001 C   0  0
    0.0006    1.3899    0.0001 C   0  0
    1.2040    0.6949    0.0001 C   0  0
   -0.0001   -1.3901   -0.0003 C   0  0
   -1.2036   -0.6951   -0.0003 C   0  0
    3.3827   -5.5948    0.9361 C   0  0  1  0  0  0
    4.6688   -6.3552    1.0524 C   0  0
    4.6839   -7.4718    1.5815 O   0  0
    2.1562   -3.1735    0.4792 S   0  0
    2.5792   -5.7654    2.1545 N   0  3
    5.8194   -5.8126    0.5741 O   0  5
   -2.5002    1.4436   -0.0001 C   0  0
    3.6663   -0.6021    4.4436 H   0  0
    5.5689    0.8706    3.8015 H   0  0
    6.0938    1.2502    1.3981 H   0  0
    4.7157    0.1570   -0.3649 H   0  0
    2.2886   -1.6949    2.6819 H   0  0
    4.9216   -2.4924   -0.8746 H   0  0
    5.7681   -2.6210   -3.2113 H   0  0
    4.4495   -1.6183   -5.0706 H   0  0
    2.2846   -0.4865   -4.5926 H   0  0
    1.4368   -0.3574   -2.2550 H   0  0
    4.2569   -3.7136    1.5390 H   0  0
    4.3029   -4.0221   -0.2246 H   0  0
    0.0005    2.4899    0.0003 H   0  0
    2.1568    1.2446    0.0003 H   0  0
   -0.0001   -2.4901   -0.0004 H   0  0
   -2.1564   -1.2448   -0.0004 H   0  0
    2.7981   -5.9845    0.0897 H   0  0
    1.6981   -5.2428    2.0478 H   0  0
    3.1029   -5.3826    2.9546 H   0  0
    2.3784   -6.7633    2.3117 H   0  0
   -2.4537    2.0951   -0.8852 H   0  0
   -2.4538    2.0948    0.8852 H   0  0
   -3.3893    0.7959   -0.0002 H   0  0
 24 14  1  0
 14  7  1  0
 14  1  1  0
  5  1  2  0
  1  6  1  0
  2  3  1  0
  2  6  2  0
  3  4  2  0
  4  5  1  0
 12  7  2  0
  8  7  1  0
  8  9  2  0
  9 10  1  0
 10 11  2  0
 11 12  1  0
 24 13  1  0
 13 21  1  0
 14 15  1  0
 18 15  2  0
 15 19  1  0
 16 17  2  0
 16 20  1  0
 17 18  1  0
 19 20  2  0
 21 22  1  0
 22 26  1  0
 22 23  2  0
 21 25  1  0
 16 27  1  0
  2 28  1  0
  3 29  1  0
  4 30  1  0
  5 31  1  0
  6 32  1  0
  8 33  1  0
  9 34  1  0
 10 35  1  0
 11 36  1  0
 12 37  1  0
 13 38  1  0
 13 39  1  0
 17 40  1  0
 18 41  1  0
 19 42  1  0
 20 43  1  0
 21 44  1  0
 25 45  1  0
 25 46  1  0
 25 47  1  0
 27 48  1  0
 27 49  1  0
 27 50  1  0
M  CHG  2  25   1  26  -1
M  END
> <Name>
BDB23822

> <Target>
Kinesin Spindle Protein Eg5

> <Ki_in_nM>
 100

> <Kd_from_ITC>
false

> <Uniprot_ID>
P52732

> <source_organism>
Homo sapiens (human)

> <SourceTag>
KIF11
$$$$
