BDB23776
  SciTegic07051219573D

 49 50  0  0  0  0            999 V2000
    3.0016   -0.3687   -2.7629 C   0  0
    3.6846   -0.5662   -1.0891 S   0  0
    4.0145    0.3704   -3.6488 C   0  0  1  0  0  0
    3.4697    0.4823   -5.0408 C   0  0
    4.0076    1.2387   -5.8570 O   0  0
    2.3905   -0.2568   -5.4068 O   0  5
    4.2672    1.7120   -3.1044 N   0  3
    2.5263   -1.4606   -0.0014 C   0  0
    1.2084   -0.6974   -0.0001 C   0  0
    0.0048    1.3871    0.0001 C   0  0
    1.2089    0.6915    0.0001 C   0  0
    0.0043   -1.3930   -0.0003 C   0  0
   -1.1987   -0.6980   -0.0003 C   0  0
   -1.1983    0.6923   -0.0001 C   0  0
    2.3764   -2.9317   -0.4469 C   0  0
    1.8526   -3.8754    0.4324 C   0  0
    1.8920   -5.2258    0.1086 C   0  0
    2.4559   -5.6361   -1.0942 C   0  0
    2.9800   -4.6960   -1.9726 C   0  0
    2.9406   -3.3443   -1.6485 C   0  0
    3.1025   -1.4313    1.4294 C   0  0
    4.5152   -2.0515    1.4384 C   0  0
    5.0652   -2.0550    2.8732 C   0  0
    6.4675   -2.6890    2.8798 C   0  0
    2.0682    0.2112   -2.7130 H   0  0
    2.7939   -1.3595   -3.1933 H   0  0
    4.9599   -0.1916   -3.6697 H   0  0
    4.6439    1.6278   -2.1495 H   0  0
    3.3842    2.2416   -3.0776 H   0  0
    4.9469    2.2057   -3.7003 H   0  0
    0.0048    2.4871    0.0003 H   0  0
    2.1617    1.2413    0.0003 H   0  0
    0.0042   -2.4930   -0.0005 H   0  0
   -2.1515   -1.2478   -0.0004 H   0  0
   -2.1508    1.2424   -0.0001 H   0  0
    1.4071   -3.5514    1.3845 H   0  0
    1.4771   -5.9705    0.8039 H   0  0
    2.4870   -6.7053   -1.3505 H   0  0
    3.4261   -5.0208   -2.9242 H   0  0
    3.3565   -2.6004   -2.3441 H   0  0
    3.1585   -0.3902    1.7800 H   0  0
    2.4473   -2.0061    2.1005 H   0  0
    5.1807   -1.4595    0.7929 H   0  0
    4.4646   -3.0843    1.0633 H   0  0
    5.1285   -1.0215    3.2446 H   0  0
    4.3962   -2.6389    3.5225 H   0  0
    7.1389   -2.1061    2.2322 H   0  0
    6.4066   -3.7228    2.5089 H   0  0
    6.8631   -2.6924    3.9062 H   0  0
  2  1  1  0
  1  3  1  0
  2  8  1  0
  3  4  1  0
  4  6  1  0
  4  5  2  0
  3  7  1  0
  8 21  1  0
  8 15  1  0
  8  9  1  0
 11  9  2  0
  9 12  1  0
 10 11  1  0
 10 14  2  0
 12 13  2  0
 13 14  1  0
 20 15  2  0
 16 15  1  0
 16 17  2  0
 17 18  1  0
 18 19  2  0
 19 20  1  0
 21 22  1  0
 22 23  1  0
 23 24  1  0
  1 25  1  0
  1 26  1  0
  3 27  1  0
  7 28  1  0
  7 29  1  0
  7 30  1  0
 10 31  1  0
 11 32  1  0
 12 33  1  0
 13 34  1  0
 14 35  1  0
 16 36  1  0
 17 37  1  0
 18 38  1  0
 19 39  1  0
 20 40  1  0
 21 41  1  0
 21 42  1  0
 22 43  1  0
 22 44  1  0
 23 45  1  0
 23 46  1  0
 24 47  1  0
 24 48  1  0
 24 49  1  0
M  CHG  2   6  -1   7   1
M  END
> <Name>
BDB23776

> <Target>
Kinesin Spindle Protein Eg5

> <Ki_in_nM>
 175

> <Kd_from_ITC>
false

> <Uniprot_ID>
P52732

> <source_organism>
Homo sapiens (human)

> <SourceTag>
KIF11
$$$$
