BDB23826
  SciTegic07051219573D

 67 71  0  0  0  0            999 V2000
    1.2032   -0.6950   -0.0001 C   0  0
   -1.2036   -0.6951   -0.0003 C   0  0
   -1.2029    0.6946   -0.0001 C   0  0
    0.0006    1.3899    0.0001 C   0  0
    1.2040    0.6949    0.0001 C   0  0
   -0.0001   -1.3901   -0.0003 C   0  0
    3.7323   -0.5641    0.3751 C   0  0
    3.7871    0.0902    1.6025 C   0  0
    4.9360    0.7767    1.9750 C   0  0
    6.0332    0.8101    1.1216 C   0  0
    5.9810    0.1572   -0.1035 C   0  0
    4.8311   -0.5299   -0.4764 C   0  0
    1.9426   -2.2423    2.8337 C   0  0
    2.5205   -1.4550    0.0031 C   0  0
    2.7288   -2.0450   -1.3791 C   0  0
    2.9195   -3.1969   -3.9011 C   0  0
    2.5833   -1.8543   -3.7746 C   0  0
    2.4877   -1.2783   -2.5135 C   0  0
    3.0644   -3.3878   -1.5063 C   0  0
    3.1600   -3.9638   -2.7674 C   0  0
    1.9809   -3.3903    3.8467 C   0  0  1  0  0  0
    1.6643   -2.8560    5.2105 C   0  0
    1.3069   -3.6238    6.1103 O   0  0
    2.3804   -2.8423    1.1791 S   0  0
    1.0280   -4.4473    3.4809 N   0  3
    1.7711   -1.5233    5.4549 O   0  5
    3.0204   -3.8048   -5.2316 C   0  0
    3.2109   -4.9544   -7.7548 C   0  0
    2.8751   -3.6125   -7.6267 C   0  0
    2.7798   -3.0375   -6.3642 C   0  0
    3.3566   -5.1481   -5.3599 C   0  0
    3.4518   -5.7226   -6.6212 C   0  0
   -2.4725    1.4277   -0.0001 C   0  0
   -3.6760    3.5125    0.0002 C   0  0
   -4.8798    2.8168    0.0000 C   0  0
   -4.8798    1.4276   -0.0002 C   0  0
   -3.6753    0.7327   -0.0003 C   0  0
   -2.4727    2.8183    0.0002 C   0  0
   -2.1564   -1.2448   -0.0004 H   0  0
    0.0005    2.4899    0.0003 H   0  0
    2.1568    1.2446    0.0003 H   0  0
   -0.0001   -2.4901   -0.0004 H   0  0
    2.9196    0.0638    2.2783 H   0  0
    4.9777    1.2938    2.9450 H   0  0
    6.9429    1.3536    1.4167 H   0  0
    6.8492    0.1838   -0.7784 H   0  0
    4.7905   -1.0472   -1.4463 H   0  0
    0.9305   -1.8119    2.8113 H   0  0
    2.6562   -1.4635    3.1405 H   0  0
    2.3930   -1.2478   -4.6723 H   0  0
    2.2213   -0.2158   -2.4129 H   0  0
    3.2544   -3.9946   -0.6087 H   0  0
    3.4261   -5.0264   -2.8682 H   0  0
    2.9889   -3.8308    3.8471 H   0  0
    1.2707   -4.8049    2.5460 H   0  0
    0.0802   -4.0452    3.4520 H   0  0
    1.0635   -5.2126    4.1694 H   0  0
    3.2863   -5.4094   -8.7535 H   0  0
    2.6845   -3.0050   -8.5238 H   0  0
    2.5138   -1.9750   -6.2625 H   0  0
    3.5472   -5.7556   -4.4629 H   0  0
    3.7178   -6.7851   -6.7231 H   0  0
   -3.6765    4.6125    0.0004 H   0  0
   -5.8326    3.3666    0.0000 H   0  0
   -5.8323    0.8774   -0.0004 H   0  0
   -3.6749   -0.3673   -0.0004 H   0  0
   -1.5201    3.3685    0.0003 H   0  0
 24 14  1  0
 14  7  1  0
 14  1  1  0
  5  1  2  0
  1  6  1  0
  2  3  1  0
  2  6  2  0
  3  4  2  0
  4  5  1  0
 12  7  2  0
  8  7  1  0
  8  9  2  0
  9 10  1  0
 10 11  2  0
 11 12  1  0
 24 13  1  0
 13 21  1  0
 14 15  1  0
 18 15  2  0
 15 19  1  0
 16 17  2  0
 16 20  1  0
 17 18  1  0
 19 20  2  0
 21 22  1  0
 22 26  1  0
 22 23  2  0
 21 25  1  0
 16 27  1  0
 30 27  2  0
 27 31  1  0
 28 29  2  0
 28 32  1  0
 29 30  1  0
 31 32  2  0
  3 33  1  0
 37 33  2  0
 33 38  1  0
 34 35  1  0
 34 38  2  0
 35 36  2  0
 36 37  1  0
  2 39  1  0
  4 40  1  0
  5 41  1  0
  6 42  1  0
  8 43  1  0
  9 44  1  0
 10 45  1  0
 11 46  1  0
 12 47  1  0
 13 48  1  0
 13 49  1  0
 17 50  1  0
 18 51  1  0
 19 52  1  0
 20 53  1  0
 21 54  1  0
 25 55  1  0
 25 56  1  0
 25 57  1  0
 28 58  1  0
 29 59  1  0
 30 60  1  0
 31 61  1  0
 32 62  1  0
 34 63  1  0
 35 64  1  0
 36 65  1  0
 37 66  1  0
 38 67  1  0
M  CHG  2  25   1  26  -1
M  END
> <Name>
BDB23826

> <Target>
Kinesin Spindle Protein Eg5

> <Ki_in_nM>
  35000

> <Kd_from_ITC>
false

> <Uniprot_ID>
P52732

> <source_organism>
Homo sapiens (human)

> <SourceTag>
KIF11
$$$$
